56

Ru  0.0  0.0  0.0 
N  1.87211865771504  0.01609162657930352  -5.303285598483464e-15 
N  0.27603193517230806  -1.9884904007078807  -4.030838804370638e-15 
N  1.830050691176722  -3.582157100076797  -0.05679795162746274 
H  2.605588099581058  -3.954211593351226  -0.06335936914154412 
N  0.25184940711265236  1.972398774128577  9.334124402854102e-15 
N  1.855461397320805  3.6024176807334514  -0.1360744611280567 
C  -0.391562663920485  3.193126990978511  -0.030055738806856986 
C  -1.7504258595369666  3.518978986748138  0.03317141083564039 
H  -2.401930659763054  2.8600859054439316  0.10985715065611619 
C  -2.084849129407565  4.855002648685371  -0.02405289617528784 
H  -2.981068129737114  5.100534176064469  0.01655587764505677 
C  -1.1030257353583781  5.854774211831852  -0.14298478601722886 
H  -1.3669739119198623  6.744873048277983  -0.19549727450436388 
C  0.24015631657483394  5.550266239227519  -0.18278151936158743 
H  0.8843840161709557  6.217325598324933  -0.2493161157279746 
C  0.5995093981222925  4.195289682923404  -0.11874602413756631 
C  1.5675839491364678  2.3049219575210866  -0.055490696804871016 
C  2.519079028187517  1.185004078542467  -0.031168713216631234 
C  3.9104648219271985  1.2217658761014527  -0.03943207933623917 
H  4.3671284357047755  2.0316876888687734  -0.0357536210584376 
C  4.595605102515376  0.01590323639831514  -0.05447136401781691 
H  5.5256762585782075  0.016166556522390955  -0.06777419538782695 
C  3.913330312347365  -1.188836446694347  -0.050274140770438035 
H  4.371567897207371  -1.99798342740442  -0.0683420523664634 
C  2.5333554813888233  -1.154238528429092  -0.01825133682307346 
C  1.578168606713846  -2.259099906828989  -0.015845309199054483 
C  0.6133958211370782  -4.227774275326149  -0.08711972980528292 
C  0.2872016930459773  -5.571817555425058  -0.16072687633230448 
H  0.940088894817013  -6.234892872858502  -0.1873156930438823 
C  -1.0560561920948228  -5.876007803703974  -0.19163184129069538 
H  -1.3144183602726793  -6.768158491188789  -0.2450935179834997 
C  -2.047261193815493  -4.883596674858057  -0.14448774402816614 
H  -2.9426066944585  -5.131790995450978  -0.16990710089928376 
C  -1.718208470508199  -3.545372151842127  -0.06226778730938729 
H  -2.3755657298225072  -2.888300240775878  -0.021552835331921642 
C  -0.36701120982429125  -3.2176462250685725  -0.04299631511037199 
C  -1.8257083212092804  -0.014296302867467954  -1.7891381073428974 
C  -0.5703235946382057  -0.03893563029378654  -2.5720819251459397 
C  -0.9228388096022632  -0.07126617226895036  -3.9773945911653055 
C  -0.1870754283492604  -0.08122544795926549  -5.157008578720108 
H  0.7626908870504955  -0.09089429763441761  -5.156137098414604 
C  -0.9191375147580261  -0.07645011704809931  -6.334645737550252 
C  -2.2993137960276435  -0.07008166040412768  -6.383887339684847 
H  -2.7462622609855147  -0.06980203554714894  -7.2223108910488145 
C  -3.033845672685213  -0.0638677186755647  -5.201754251110573 
H  -3.984116372498519  -0.06851912837875442  -5.212027101938491 
C  -2.329531258453763  -0.05051677391915574  -4.010445412823865 
F  -0.22991022551247542  -0.08411926803785981  -7.506289940319319 
N  -2.842179455316705  -0.01678894588579449  -2.699930048599066 
H  -3.6981508192393644  0.0003994880673434181  -2.4964133616108386 
N  0.5624143669042263  2.1901177651280485e-15  -1.9213240076571632 
O  -1.9224143669042142  -4.509000610980605e-16  -0.5586759923428503 
O  1.6810820687070231  -0.07266436601864384  -2.5632342450379153 
O  0.0  0.0  1.88 
H  -0.6511917182125614  0.10287963460190092  2.323400729493708 
