58

Ru  0.0  0.0  0.0 
C  0.9438756801513322  -6.122042616812729  -2.0571332193480463 
H  1.3242081920619821  -6.57706456550614  -2.7993720667489272 
C  3.348432527151795  5.403131033526214  1.4921441210518251 
H  3.939629955086308  5.414851189063752  2.2736719767024045 
H  2.508638951609332  5.858367972141789  1.7110224667087786 
H  3.784789519082069  5.864125707481357  0.7454933953583766 
O  0.26137252489279994  1.8957201117117815  5.707534425055877e-15 
O  0.06379429759175548  -1.9207028069512648  -4.59425190265481e-15 
C  1.038186000380845  -2.6857545262079836  -0.5108693829132087 
C  3.060060986803675  3.9793481881602526  1.1025551787564125 
N  2.074833177515445  0.02498269523948371  -1.0577713711698093e-15 
C  4.334927488897737  -0.8561642581369865  -0.5597905324429524 
H  4.567058041329927  0.03717117653815827  -0.889386827600067 
H  4.63764140035796  -1.5304555677875327  -1.2034503242104686 
H  4.771717168548471  -1.0094426979420064  0.30382484238634455 
C  2.8497015939112895  -0.9564236420369798  -0.3931609828375545 
C  0.6694146337940563  -4.096322652917656  -0.7667299095609852 
C  -0.49907450023441213  -6.109220136241982  -0.14765130769851437 
H  -1.080680664091677  -6.570514482460417  0.44549017315587736 
C  2.5277235704834755  1.3010152033719138  0.39680316297444157 
C  -0.23541963912610364  -4.766911844131233  0.0583844735257267 
H  -0.6708751892124938  -4.300696897943411  0.7624609380166552 
C  2.3047504151247136  -2.24960412211298  -0.7165679689858538 
H  2.9019138973004166  -2.868328643095679  -1.1202106732312267 
C  3.786362423511565  1.6798420229930882  0.8822610585574061 
H  4.466054949546522  1.025574504004789  0.9929797274850689 
C  1.7850439479600309  3.602459296561592  0.6723492466170279 
H  1.0968745143673146  4.253378484428293  0.6033154756376313 
C  0.07458711274077401  -6.786041300880401  -1.20505667693786 
H  -0.12581670564357617  -7.7032515219230735  -1.349187728386958 
C  1.5215700646259198  2.2791472279505163  0.34687356109026507 
C  1.255944071389912  -4.793686960611415  -1.822835908591523 
H  1.8778554156826208  -4.351309091324412  -2.3886671472176046 
C  4.045066576416728  3.0000790537042104  1.200860421407839 
H  4.914989021475286  3.2446895110124805  1.4938394031774775 
C  0.45459525682068713  3.116290817982287e-16  -1.8621973989016671 
C  -0.33274666993913127  -0.04217917357916183  -3.968026220929328 
H  -0.9300553620892231  -0.023172922271775562  -4.680805814277228 
C  2.809525279630392  -0.47973210038478187  -2.5176607079663036 
H  2.8790206050874754  -1.0964631029005483  -1.7849018320217582 
H  3.27930875305875  0.32846407765991115  -2.301760254313347 
H  3.1937996678709313  -0.8739928617474717  -3.3039290251405986 
N  -0.6683580449753944  0.08598840515928725  -2.653573400662803 
N  1.401959647764349  -0.17424833988279687  -2.7644638766232372 
N  0.9466011857940447  -0.19256226605931642  -4.070040776395931 
C  -1.814595256820687  -2.7244038422551345e-16  -0.6178026010983332 
C  -3.166955099728323  -0.042179173579167666  -2.413782888464294 
H  -3.446857699939385  -0.023172922271771167  -3.3006238870690767 
C  -3.6332922992864827  -0.4797321003847829  1.0154973191816583 
H  -3.0527907020557654  -1.0964631029005545  1.4680269493148532 
H  -3.7038006320813963  0.3284640776599133  1.5276868278602795 
H  -4.502859655445954  -0.8739928617474826  0.9168196360331684 
N  -1.8781838064600898  0.08598840515928843  -1.9901205637195833 
N  -3.084689447406817  -0.1742483398827961  -0.30404340507776406 
N  -3.9407511801399204  -0.19256226605931814  -1.3898798015289306 
O  0.0  0.0  1.88 
H  -0.6511917182125614  0.10287963460190092  2.323400729493708 
