86

Ru  0.0  0.0  0.0 
O  0.11073108409522603  1.9426842667959057  -1.984028548544647e-14 
N  2.0263507931381257  0.025504791544201877  2.9042731096043756e-15 
N  0.26291812276664817  -1.9681890583401072  1.6942951269746e-14 
C  1.0947781929851783  2.8358912349079852  0.13464612731657055 
C  0.7261474204489076  4.159285058763058  0.3100171640403157 
H  -0.19477212841116964  4.386391502046661  0.36238459615630336 
C  1.6785450957551356  5.151513341101362  0.4094463539156635 
H  1.4208473705754996  6.056727417859891  0.5385891728234371 
C  3.005989020235969  4.809569895494011  0.3186849779614865 
H  3.671929582684543  5.486471058494007  0.3492325280257771 
C  3.3748355062369786  3.507201779187402  0.18297315315360657 
H  4.301655052640508  3.298794305948234  0.13938572948092426 
C  2.4487478327852807  2.4563062863169476  0.1036586894954142 
C  2.912256873091197  1.0540231449759583  0.042038959980148 
C  4.2757797737588  0.7635778241607607  0.02902377763187066 
H  4.898580135800891  1.4809705545134115  0.037335184095841106 
C  4.741017160447946  -0.5155009758836194  0.00394256347298183 
H  5.674963175279926  -0.6930136089985272  -0.005174259661931612 
C  3.8396739706491694  -1.5398260556898822  -0.009787880192926295 
H  4.137963792431412  -2.4411119763312885  -0.008932617257448745 
C  2.503507178016668  -1.2571794571530388  -0.02013063619538648 
C  1.4845420943667234  -2.336461289541069  -0.020009891012289335 
C  1.9449960698740156  -3.7588174771656324  -0.04973213799407421 
H  1.1677949397649026  -4.350901555563355  -0.11460938720393006 
H  2.441476985958372  -3.959351896059638  0.7710302739150497 
H  2.5269118235542605  -3.896612215038519  -0.8256849044903952 
C  -0.78080022802128  -2.9828140679280692  0.039619365809617745 
C  -1.2312648663126067  -3.4479279870204103  1.2872823459110676 
C  -2.204807645254803  -4.421307996053243  1.2690709323265414 
H  -2.5308476775899464  -4.756718608454958  2.096688403386213 
C  -2.713239052352381  -4.91478980427485  0.12325718252637993 
H  -3.3688190765860515  -5.602125774791557  0.15663360323977665 
C  -2.2934203956840165  -4.4399299830167065  -1.0836594946588585 
H  -2.68020723646438  -4.784263361252279  -1.880254294059422 
C  -1.310684540411814  -3.461433933294356  -1.170019030554835 
C  -0.68722371990276  -2.9188539928082333  2.5981603340020376 
H  0.03492572327015875  -2.2599317570323976  2.3856118949929095 
C  -0.0657030729909408  -4.039382851441337  3.45573641950857 
H  -0.772737352814971  -4.644712251417047  3.7643359896293993 
H  0.38668126801901376  -3.6444936042561342  4.230824659947354 
H  0.5835077703108086  -4.540807295869322  2.920709403864015 
C  -1.773895763017349  -2.1827174676879086  3.378219669627824 
H  -2.1889254007965846  -1.5088349894376518  2.8001126594020964 
H  -1.3763773059059463  -1.745252028495873  4.158612875497972 
H  -2.4538014954500023  -2.8236661463075268  3.6719303544538646 
C  -0.8516849931625328  -2.9538517472161856  -2.5309516960460643 
H  -0.12198596579788568  -2.288016636331973  -2.3791526691160603 
C  -2.006723307221039  -2.234022853414449  -3.2263400599874315 
H  -2.7221756913457353  -2.874988607415999  -3.4216432044769984 
H  -1.687573990652598  -1.8383746156058978  -4.06467464453759 
H  -2.3516451910952023  -1.5268922281022463  -2.641217173090781 
C  -0.29226560859939243  -4.063486744237485  -3.4166423505979453 
H  0.44991780238241763  -4.5064099766005175  -2.954399292568418 
H  0.02965587540230641  -3.67880388640481  -4.258650561382037 
H  -0.9973104737458052  -4.717663969491426  -3.60426366092737 
O  -1.952754838612746  2.5049406993105094e-15  -0.04724516138725399 
N  -0.047245161387253765  0.0  -1.9527548386127456 
N  -3.130528218927169  -0.09099332218346029  -3.9480456100055727 
N  -5.3048115924509585  -0.17496710044725483  -3.187042741297298 
N  -3.658678089470925  -0.11030991732635118  -1.5719366955412712 
N  -0.9055204634357027  -0.003107422784062952  -4.6549417103552475 
C  0.36656557163448455  0.1411006503943983  -4.310954383539858 
C  0.8142850190557842  0.2293115541440942  -2.9586999759447066 
C  -1.8123406038401546  -0.04268752196096624  -3.631525324563972 
C  -2.3641238732281993  -0.07562094306054667  -1.2612245517931133 
C  -1.3668209316042275  -0.07809433445778287  -2.306946018036941 
C  2.2178922998057278  0.6521279357779691  -2.6606954980456834 
H  2.2731319981121043  0.975142990704117  -1.737391853505007 
H  2.4800058431525684  1.370085515006555  -3.2743267593275753 
H  2.820138810897598  -0.11220440565693915  -2.7749078516434182 
C  -3.9718448809875584  -0.1304294156670011  -2.9013568460120407 
C  -5.809916511193159  -0.14651328864204158  -4.551977520565646 
H  -5.080568178522866  0.0795629820678328  -5.1659693034528775 
H  -6.518290969394872  0.5265595236402913  -4.624528994250101 
H  -6.17111819232466  -1.0273666194677162  -4.784452928127569 
C  1.3811543613765291  0.20674744275065005  -5.421902224972208 
H  0.9646504183997879  -0.07430517134040669  -6.262946042854116 
H  2.131062775897476  -0.387794327155044  -5.214192563020394 
H  1.7091264167373577  1.1267010879944597  -5.511241138694379 
C  -6.307725663359231  -0.388362804663089  -2.166012139504914 
H  -6.705384724915796  -1.2759848153865228  -2.280406793406546 
H  -7.004553891726147  0.29502974869176574  -2.245074951054844 
H  -5.8900067851680715  -0.32917685412839576  -1.2809909691015915 
O  0.0  0.0  1.88 
H  -0.6511917182125614  0.10287963460190092  2.323400729493708 
