56

Ru  0.0  0.0  0.0 
N  1.87211865771504  -0.01609162657930352  5.3013149425851225e-15 
N  0.27603193517230806  1.9884904007078807  4.274358644806853e-15 
N  1.830050691176722  3.582157100076797  0.05679795162746318 
H  2.605588099581058  3.954211593351226  0.06335936914154461 
N  0.25184940711265236  -1.972398774128577  -9.575673587391975e-15 
N  1.855461397320805  -3.6024176807334514  0.13607446112805627 
C  -0.391562663920485  -3.193126990978511  0.030055738806856594 
C  -1.7504258595369666  -3.518978986748138  -0.03317141083564082 
H  -2.401930659763054  -2.8600859054439316  -0.10985715065611654 
C  -2.084849129407565  -4.855002648685371  0.024052896175287247 
H  -2.981068129737114  -5.100534176064469  -0.016555877645057393 
C  -1.1030257353583781  -5.854774211831852  0.14298478601722814 
H  -1.3669739119198623  -6.744873048277983  0.19549727450436305 
C  0.24015631657483394  -5.550266239227519  0.18278151936158676 
H  0.8843840161709557  -6.217325598324933  0.24931611572797385 
C  0.5995093981222925  -4.195289682923404  0.1187460241375658 
C  1.5675839491364678  -2.3049219575210866  0.05549069680487073 
C  2.519079028187517  -1.185004078542467  0.03116871321663109 
C  3.9104648219271985  -1.2217658761014527  0.03943207933623902 
H  4.3671284357047755  -2.0316876888687734  0.03575362105843735 
C  4.595605102515376  -0.015903236398315146  0.05447136401781691 
H  5.5256762585782075  -0.016166556522390962  0.06777419538782695 
C  3.913330312347365  1.188836446694347  0.05027414077043818 
H  4.371567897207371  1.99798342740442  0.06834205236646365 
C  2.5333554813888233  1.154238528429092  0.018251336823073602 
C  1.578168606713846  2.259099906828989  0.01584530919905476 
C  0.6133958211370782  4.227774275326149  0.08711972980528343 
C  0.2872016930459773  5.571817555425058  0.16072687633230517 
H  0.940088894817013  6.234892872858502  0.18731569304388307 
C  -1.0560561920948228  5.876007803703974  0.1916318412906961 
H  -1.3144183602726793  6.768158491188789  0.24509351798350054 
C  -2.047261193815493  4.883596674858057  0.14448774402816675 
H  -2.9426066944585  5.131790995450978  0.1699071008992844 
C  -1.718208470508199  3.545372151842127  0.06226778730938773 
H  -2.3755657298225072  2.888300240775878  0.021552835331921996 
C  -0.36701120982429125  3.2176462250685725  0.042996315110372385 
C  -1.8257083212092804  -0.014296302867467954  -1.7891381073428974 
C  -0.5703235946382057  -0.03893563029378654  -2.5720819251459397 
C  -0.9228388096022632  -0.07126617226895036  -3.9773945911653055 
C  -0.1870754283492604  -0.08122544795926549  -5.157008578720108 
H  0.7626908870504955  -0.09089429763441761  -5.156137098414604 
C  -0.9191375147580261  -0.07645011704809931  -6.334645737550252 
C  -2.2993137960276435  -0.07008166040412768  -6.383887339684847 
H  -2.7462622609855147  -0.06980203554714894  -7.2223108910488145 
C  -3.033845672685213  -0.0638677186755647  -5.201754251110573 
H  -3.984116372498519  -0.06851912837875442  -5.212027101938491 
C  -2.329531258453763  -0.05051677391915574  -4.010445412823865 
F  -0.22991022551247542  -0.08411926803785981  -7.506289940319319 
N  -2.842179455316705  -0.01678894588579449  -2.699930048599066 
H  -3.6981508192393644  0.0003994880673434181  -2.4964133616108386 
N  0.5624143669042263  2.1901177651280485e-15  -1.9213240076571632 
O  -1.9224143669042142  -4.509000610980605e-16  -0.5586759923428503 
O  1.6810820687070231  -0.07266436601864384  -2.5632342450379153 
O  0.0  0.0  1.88 
H  -0.6511917182125614  0.10287963460190092  2.323400729493708 
