85

Ru  0.0  0.0  0.0 
O  -0.8735150985948423  -5.018624529252454  3.736270769132206 
O  2.02295074274552  -3.5039558721820074  -0.09281474953107782 
O  2.0800626042636665  3.489621087086418  0.15712436318184644 
O  -0.9034603224843827  5.072755789662826  3.577993188358727 
N  -0.5338844479377196  -3.2305314879520655  2.376131895050832 
H  -0.20120473151061646  -2.437531672285514  2.364371000918323 
N  0.2580790948319792  -1.9954732973206248  1.3183898417423732e-15 
N  1.8515395444343912  -0.01351311468504146  -2.900457651833221e-15 
N  0.29038136073362986  2.0089864120056666  1.6237011735142912e-15 
N  -0.6171924573997221  3.217982841542282  2.315184968421868 
H  -0.352735580447743  2.4002890915632853  2.3355078982817727 
C  0.1464150312580652  -3.1142796489721247  4.704063291922252 
H  0.40998265630538644  -2.246098825377934  4.390273020291299 
H  -0.4968981496629956  -3.018048875934086  5.409812241318374 
H  0.9161173889801063  -3.583191533851639  5.033498603836248 
C  -0.4668697581400518  -3.8915315974461087  3.5706986393561424 
C  -1.0835361898171219  -3.6917137590533047  1.1580143410065435 
C  -1.9936011912830323  -4.73937528716509  1.0841989251279502 
H  -2.267717368599797  -5.169274217685732  1.862195487376431 
C  -2.4909102936107708  -5.147307904226213  -0.13396791758270257 
H  -3.087959295012082  -5.858746273243969  -0.17226670366073774 
C  -2.119510070650655  -4.519050482786138  -1.2847732559395615 
H  -2.4777164137407226  -4.778950703790719  -2.1032647652979723 
C  -1.2126913443934961  -3.5021955770178623  -1.2170565052471698 
H  -0.9457380515602523  -3.0881431993924853  -2.00657174134351 
C  -0.6812661710407328  -3.065204439694637  -0.03822204230169852 
C  1.5551091641306263  -2.383878581199132  -0.03711987056013342 
C  2.4801717061431736  -1.1817586865774108  -0.037856294314337256 
C  3.8704713400462216  -1.230178044626071  -0.028147343021603443 
H  4.319467622755169  -2.0432731020516095  -0.06831730323700996 
C  4.5677262029487276  -0.03439790058688741  0.04324721755857792 
H  5.4974475516910735  -0.037774607359595036  0.07654033312442358 
C  3.883267135785122  1.15290924791885  0.06395495728801986 
H  4.347827983235187  1.958590899419587  0.08201583909154572 
C  2.5054864138097823  1.1517099648411855  0.05784563054838333 
C  1.5830441980253935  2.3554210528831043  0.07972884474849684 
C  -0.6409841099170983  3.0814209292222436  -0.06898337743250577 
C  -1.0797948198865412  3.5318011280874106  -1.2980904261822415 
H  -0.7491017486202727  3.1314814915116256  -2.0697469632428125 
C  -1.9959311794715278  4.557055738772507  -1.4129632424414342 
H  -2.286378324225561  4.841578476820458  -2.249927236671728 
C  -2.475044162724477  5.154602051801723  -0.25780407459327637 
H  -3.0954280578533497  5.844601983404583  -0.3116290414095838 
C  -2.035399282002806  4.728305385146891  0.9518757346348533 
H  -2.361972948285734  5.135145889899738  1.721797687941145 
C  -1.0990139743583558  3.686892862633203  1.072432914343424 
C  -0.5226053522047927  3.89739256461697  3.4641602369644153 
C  0.0641519753080273  3.201461684173198  4.603746332112459 
H  0.30414378220008365  2.3068869202375346  4.345430373731762 
H  0.8528365018483637  3.6689123463315902  4.894602922279376 
H  -0.5692062834827969  3.166813251379533  5.322773572296306 
N  -1.9476902216705574  -9.103828801926284e-15  -0.05230977832943595 
N  -3.079798304275026  0.09671363897457153  0.678623858424177 
N  -0.05230977832943817  8.881784197001252e-16  -1.9476902216705643 
C  -3.754329695378983  0.16169255548863215  -1.4118802728379463 
H  -4.274727725393512  0.21634229775505953  -2.1800778945650805 
C  -3.0317044943929305  0.002523835224353954  2.1050828926486282 
C  0.9253921090386231  -0.13961435259218558  -2.8584805114668566 
C  0.656717120505657  -0.37642287922088546  -4.195382307506058 
H  1.352029229155971  -0.49120661634188156  -4.802045397908668 
C  -1.677956854726111  -0.29261526962691353  -3.7035908842891105 
H  -2.5692773983626624  -0.33005596624248434  -3.9684405449050124 
C  -2.299074542450133  -1.1345522816729465  4.068509251822361 
H  -1.8245694121087215  -1.8229176617496958  4.475926230839523 
C  -3.678740401692634  0.828155309130276  4.242310661034825 
H  -4.129878251142334  1.4489522200268075  4.768308708764304 
C  -2.355117350545516  0.027669216238729755  -1.3297043724660464 
C  -0.6627702850342709  -0.44095463905488275  -4.621329027876431 
H  -0.8599368211497045  -0.5830847449044233  -5.518356742078991 
C  -2.3333244682604715  -1.0369243981001552  2.688702939715083 
H  -1.89219901532371  -1.662867818735617  2.1603735075096466 
C  -3.7159170020891565  0.9418189942485127  2.8549871922401886 
H  -4.188060406425818  1.6296660280296895  2.4437317802881253 
C  2.336417782251462  0.015974752081625576  -2.3625731914552026 
H  2.3270237573044747  0.18190523330781072  -1.4169960514526778 
H  2.7544521419301784  0.7550664012217674  -2.812090697565208 
H  2.8295241155429904  -0.7874538883520003  -2.5422959329176695 
C  -1.3391834435657006  -0.0860395005500586  -2.3731359104094634 
C  -4.180369244361503  0.19396216802633326  -0.10813091241262973 
H  -5.060585375589644  0.2676110997528247  0.18267396578121664 
C  -2.9767601397196124  -0.19894408044992495  4.842753144312182 
H  -2.95696355590355  -0.265305517302193  5.770887716972954 
O  0.0  0.0  1.88 
H  -0.6511917182125614  0.10287963460190092  2.323400729493708 
