47

Fe  0.0  0.0  0.0 
S  1.68924  1.39377  0.0 
S  1.68924  -1.39377  0.0 
C  2.74126  -0.01405  0.49954 
N  3.99053  -0.06968  -0.28807 
C  4.84856  1.10477  -0.04601 
C  4.7654  -1.2838  0.05354 
H  4.28305  2.05515  -0.11033 
H  5.63272  1.14895  -0.8319 
H  5.34044  1.06109  0.95196 
H  5.10734  -1.2645  1.11362 
H  5.64437  -1.37818  -0.61743 
H  4.17513  -2.21188  -0.08962 
S  -1.4892  1.3888  0.0 
N  -1.4892  -1.3888  0.0 
N  -2.53789  -0.83837  0.74949 
N  -3.74065  -4.64486  2.1914 
H  -4.64418  -4.80426  2.69032 
N  -4.01376  1.04065  0.66015 
H  -3.85191  2.03683  0.88852 
C  -1.01212  -2.59436  0.68503 
H  -0.29197  -3.10505  0.01747 
C  -2.01845  -3.63211  1.15337 
C  -3.26686  -3.45773  1.75377 
H  -3.79741  -2.53482  1.90844 
C  -2.81071  -5.56148  1.90084 
C  -1.75469  -4.98886  1.2417 
C  -2.82502  -6.91551  2.22423 
H  -3.6505  -7.34867  2.76918 
C  -1.71971  -7.69557  1.83915 
H  -1.68886  -8.74902  2.08942 
C  -0.64077  -7.11442  1.13847 
H  0.20481  -7.71994  0.83998 
C  -0.65109  -5.74079  0.83646 
H  0.18668  -5.29549  0.31106 
C  -2.93749  0.32454  -0.00209 
C  -5.26788  0.49461  1.05659 
C  -6.12422  1.29303  1.83679 
H  -5.83572  2.30359  2.10315 
C  -7.34294  0.79686  2.29715 
H  -7.98243  1.42075  2.9078 
C  -7.7284  -0.50558  1.97803 
H  -8.67235  -0.89262  2.3386 
C  -6.89683  -1.30772  1.18874 
H  -7.20149  -2.31696  0.94341 
C  -5.67044  -0.81392  0.72304 
H  -5.04616  -1.45436  0.11751 
