64

Ru  0.0  0.0  0.0 
C  -0.3796944106717801  3.1948470853524378  -0.09132036878981269 
C  0.5489064046320156  4.236538792823375  -0.03615767846918536 
C  1.78092371744617  3.6657945184366194  0.05250327224150344 
C  2.4442905298614477  1.2023773242532356  0.1397941628754 
C  3.8043085584769534  1.285134855604285  0.3610245921690956 
C  4.501610319296109  0.11714127565015359  0.43457907228035303 
H  5.420728640592642  0.14640882237161698  0.5719260131489124 
C  3.8835951306754337  -1.1019354059586983  0.31334256378682634 
C  2.5197116369688217  -1.1042764262791758  0.12265526683576082 
C  1.9951300229490814  -3.595402940236647  0.027907645807361336 
C  0.7998226859093938  -4.2405011435368385  -0.07017175120319435 
C  -0.19990919663954643  -3.255178552188055  -0.08639777945629654 
C  -1.8605637259665408  3.314151942755272  -0.27082026299177014 
H  -2.253052697846802  2.438314636328165  -0.2821246702245584 
H  -2.0474550038807298  3.7585600072805567  -1.1005140694194737 
H  -2.231144782940169  3.8215416942740306  0.4545866161223173 
C  0.19459576264392453  5.697308536806711  -0.02486812414454927 
H  -0.3484486873326018  5.8893504776012096  0.7423956103858755 
H  -0.2909726095461804  5.914852947934545  -0.8229922279753358 
H  0.9982639255383421  6.221369407265162  0.012071258690604424 
C  3.109031119399031  4.325199433786062  0.09959962550811675 
C  3.361799242647419  -4.175906531874504  0.13452492407258293 
H  3.3188369152019837  -5.1229945716463074  -0.016027204247386042 
H  3.7130656256058945  -4.00620411184545  1.012538059987732 
H  3.932944123134458  -3.772169498855589  -0.5225420311629759 
C  0.5624573429437698  -5.735064439448483  -0.11900307795695023 
H  1.2628208443133384  -6.186192728018108  0.3575450866619053 
H  0.5573326185887924  -6.0289050066129315  -1.032429242618748 
H  -0.2828224042965266  -5.938512115884191  0.2878907802644434 
C  -1.6711128223804435  -3.437836682605793  -0.19990010982502923 
H  -2.1099865135224984  -2.5934205733194506  -0.068868634213015 
H  -1.9689347961412709  -4.059162628588131  0.469659387751071 
H  -1.885954002919427  -3.77854424852797  -1.0701915734554621 
N  0.23092712112285374  2.021071542434257  -4.674524190221803e-15 
N  1.5758446829508121  2.2981731378024914  0.08320064742005939 
N  1.82813362123835  0.026837871073550457  -3.597633733514559e-15 
N  1.7020639823427315  -2.2440865054170107  0.0657515202081659 
N  0.3409392576387964  -2.0479094135078073  8.286035711544177e-15 
H  4.240018645097682  2.082294614436264  0.5122682674613089 
H  4.3864009164990465  -1.885428625948681  0.3944255827983791 
H  3.706602424892206  3.9665077835263802  -0.4902861048542709 
H  3.007772890990598  5.233811210539143  -0.06149711662280276 
H  3.5761270186683465  4.228184968386055  0.9677839172278764 
N  0.5571118322867992  -6.560928427826822e-17  -1.9184161660927606 
O  -1.9171118322867986  1.0479798185098359e-16  -0.5615838339072398 
C  -2.3974097381407407  -0.08336378517976922  -1.8032213780209974 
O  1.9026514243586543  0.24794021042628941  -2.0037599310726715 
C  -3.772005896045178  -0.3639602703904128  -1.9732785012526017 
H  -4.31832629773377  -0.49699854877796873  -1.2060068575810117 
C  -4.345712733281322  -0.45392140110789725  -3.23610157273513 
H  -5.267385685817284  -0.6631161172124533  -3.3234142254127432 
C  -3.581457511321848  -0.23914003919236673  -4.358110009548959 
H  -3.9770153461004796  -0.2896175998277549  -5.218610535532265 
C  -2.2317419047535996  0.05396814782454374  -4.227942301995184 
H  -1.7142036957608409  0.19567819203322823  -5.013020288951195 
C  -1.6097728423004605  0.14563114096419913  -2.971439142015123 
C  -0.16919156412139302  0.4227728234682407  -2.9194138714361038 
C  0.5254954395215213  1.1336788524963197  -4.058368920971049 
H  1.0735774603158903  1.8650944480793403  -3.70076476129183 
H  -0.1439368527092062  1.4983738718664414  -4.674198953500594 
H  1.099208197156961  0.5006106371727924  -4.537435864595228 
O  0.0  0.0  1.88 
H  -0.6511917182125614  0.10287963460190092  2.323400729493708 
