98

Ru  0.0  0.0  0.0 
O  0.19763709932635765  1.881953081037189  1.2838688445704348e-14 
O  0.15317114110146668  -1.8630228279052359  -1.8178167304760958e-14 
O  9.959088517478268  -2.883521334528206  1.4721026274182445 
N  2.049191759572176  -0.018930253131953068  5.337744135580635e-15 
N  4.1184068256385515  0.6239598636148496  0.5832164933823528 
N  4.077359983874483  -0.7248630836268399  0.3289964631419378 
O  8.805885396865039  -4.08627292432042  2.949173768514773 
H  9.55911077167447  -4.178457922687394  3.3095579535441213 
C  2.8830728079420034  1.0124951562852882  0.38433630062500823 
C  5.264801911544248  -1.4723048752993357  0.6628261749312278 
C  6.474000313227087  -0.9675740438214451  0.21505625284701074 
H  6.501466258825787  -0.22603723078633742  -0.3785019723896592 
C  2.418067884902813  -2.43027416293277  -0.4648223454477613 
C  7.637654495203976  -1.5644229856014809  0.6484710373938096 
H  8.4737675866866  -1.2207237278494207  0.35812224977442103 
C  7.609057660418304  -2.66119527311641  1.5041254830548554 
C  1.1103856700081827  2.7667658517345517  0.41947656374242437 
C  2.4452257204471497  2.3883776040195186  0.5994422930778835 
C  5.194817508811204  -2.5724950865723466  1.5004407476274912 
H  4.353573444533476  -2.910044343848579  1.786139738227307 
C  2.845640756407609  -1.1058707934173142  -0.041559443259006464 
C  1.0533363648640708  -2.7452936621035744  -0.41603091838396344 
C  8.892111940500248  -3.230814680526915  1.9836504511896778 
C  3.3208427464653436  -3.37651061289739  -0.9720848909694139 
H  4.244274173345826  -3.1607833168099413  -1.0288397460240661 
C  6.380942372280422  -3.174903551535111  1.9186489488877363 
H  6.353161332713932  -3.9361724191525544  2.485772599458808 
C  2.8860501320114853  -4.614571065755825  -1.3888951925267807 
H  3.5048943753030546  -5.246306278423193  -1.7357371790581149 
C  1.5440649691389603  -4.934017415451337  -1.298443037791724 
H  1.24303226274843  -5.791855364310274  -1.5724191191942505 
C  0.6493845451794154  -4.02403626064098  -0.8175671110979679 
H  -0.2682234724581647  -4.263308504844536  -0.7527003313025719 
C  0.7250928225228128  4.081755481948575  0.6833104397064518 
H  -0.17531794819077562  4.346934450214954  0.5421115772034573 
C  3.3737361430115547  3.3552205590550757  1.0511293036143647 
H  4.285274350023447  3.113575968585881  1.1668392818121067 
C  1.6456853648541667  4.998725319396822  1.1491801620688646 
H  1.3680322865440675  5.884667648760989  1.3518785023327113 
C  2.974496631449817  4.637354958365208  1.321428035601005 
H  3.6060009028348405  5.277719979598945  1.6260873449988769 
N  -1.9428829288411154  -1.474514954580286e-15  -0.057117071158884425 
N  -0.057117071158884425  2.220446049250313e-16  -1.9428829288411156 
C  -2.3382023520047195  0.045376957501585276  -1.288335762292795 
C  -3.6635664438308466  0.04537516985768001  -1.9844613645333429 
C  -4.958506769776154  -0.04883591885642025  -1.5821775430791056 
H  -5.181581347131397  -0.10021441808090024  -0.6815262605311825 
C  -5.951703337431548  -0.06673349654723695  -2.58517889637353 
H  -6.841716775618416  -0.1546868996062831  -2.3302490261405486 
C  -5.655964507026807  0.044136247061892314  -3.931230401384726 
H  -6.344880182372863  0.03296686611756503  -4.554441615333734 
C  -4.325521696286742  0.17155639798246092  -4.371541078622302 
C  -3.8495353240478134  0.3364762831364073  -5.691038189238186 
H  -4.458011031403981  0.37878379931649286  -6.394029432165228 
C  -2.5336830668710815  0.43150453953101675  -5.946279012324057 
H  -2.26034665117995  0.5329434176101676  -6.83071653293889 
C  -1.5510933239385287  0.3892906281646512  -4.94391338902539 
H  -0.650048630503944  0.4770918391162677  -5.15385261306136 
C  -1.9548836647719317  0.2144455098939601  -3.6646693875672716 
C  -1.2842163179699448  0.09515569026835982  -2.3429483773433626 
C  -3.3312559870751675  0.16087356159400218  -3.3619157637194625 
C  -2.9379091353970463  -0.051211904677807694  0.9863485818869009 
C  -3.133980277734122  1.0838208371992464  1.802377400011368 
C  -2.3676819118551657  2.274440565027728  1.6830701573273226 
H  -1.6923772891175832  2.3276021004506973  1.0448482306742948 
C  -2.619306585246707  3.350572781282265  2.5070659867340166 
H  -2.1022721554621  4.120254297659025  2.4292882793540387 
C  -3.6400143892864727  3.297071249378111  3.455983804490741 
H  -3.80683653910076  4.031225110938957  4.001705242485128 
C  -4.393387586244534  2.168474840818554  3.5877191554472136 
H  -5.070737438900826  2.1424732864667533  4.225023224379592 
C  -4.166391678041089  1.0423339688130226  2.775595911070257 
C  -4.934340400995536  -0.1385295906781614  2.8921932642919796 
H  -5.614600288814437  -0.1755609116429477  3.525284739745787 
C  -4.706308475010321  -1.2131211560507251  2.1115229315896964 
H  -5.233465713848997  -1.9728319445570093  2.204693277553988 
C  -3.6698031062477994  -1.1901591309040949  1.152165502928419 
H  -3.489016041516837  -1.9451877147121364  0.6384658875316305 
C  0.9631504947682996  -0.033352944378521356  -2.918728170166974 
C  1.0704382428951167  -1.1679771661075287  -3.793047227815687 
C  0.26052676159546106  -2.313703891240449  -3.617770578557367 
H  -0.3544485375666718  -2.3484308034711914  -2.9206324624086624 
C  0.382712734633329  -3.3647165648801503  -4.475553556845943 
H  -0.13398557560902746  -4.124588116935182  -4.338484521064081 
C  1.2593771585189677  -3.323519919558998  -5.543518862606257 
H  1.2995847515188366  -4.0388219475282945  -6.135869179773557 
C  2.0646110353483627  -2.2402740078187717  -5.735029980571827 
H  2.6682402223461112  -2.2263034693549058  -6.442341035666773 
C  1.9776562182603694  -1.132405933277408  -4.8474757235275305 
C  2.823936270155974  -0.02581905941574253  -4.995351294061238 
H  3.416907765588191  0.007272169460145311  -5.7108716614697235 
C  2.7900009027716686  1.005923427065876  -4.0955364173064215 
H  3.390496251218936  1.7113535580680828  -4.180453769876413 
C  1.8457661770561138  1.0110064108321473  -3.0354692279127757 
H  1.8253600296814165  1.7136646032304426  -2.425942875894343 
O  0.0  0.0  1.88 
H  -0.6511917182125614  0.10287963460190092  2.323400729493708 
