66

Ru  0.0  0.0  0.0 
C  0.9438756801513322  6.122042616812729  2.057133219348047 
H  1.3242081920619821  6.57706456550614  2.799372066748928 
C  3.348432527151795  -5.403131033526214  -1.4921441210518258 
H  3.939629955086308  -5.414851189063752  -2.273671976702405 
H  2.508638951609332  -5.858367972141789  -1.7110224667087792 
H  3.784789519082069  -5.864125707481357  -0.7454933953583772 
O  0.26137252489279994  -1.8957201117117815  -5.939693181744587e-15 
O  0.06379429759175548  1.9207028069512648  4.82947015711943e-15 
C  1.038186000380845  2.6857545262079836  0.510869382913209 
C  3.060060986803675  -3.9793481881602526  -1.102555178756413 
N  2.074833177515445  -0.02498269523948371  1.0547118733938985e-15 
C  4.334927488897737  0.8561642581369864  0.5597905324429525 
H  4.567058041329927  -0.03717117653815838  0.889386827600067 
H  4.63764140035796  1.5304555677875324  1.2034503242104688 
H  4.771717168548471  1.0094426979420064  -0.30382484238634444 
C  2.8497015939112895  0.9564236420369798  0.39316098283755463 
C  0.6694146337940563  4.096322652917656  0.7667299095609857 
C  -0.49907450023441213  6.109220136241982  0.14765130769851512 
H  -1.080680664091677  6.570514482460417  -0.4454901731558766 
C  2.5277235704834755  -1.3010152033719138  -0.39680316297444174 
C  -0.23541963912610364  4.766911844131233  -0.058384473525726115 
H  -0.6708751892124938  4.300696897943411  -0.7624609380166546 
C  2.3047504151247136  2.24960412211298  0.7165679689858541 
H  2.9019138973004166  2.868328643095679  1.1202106732312271 
C  3.786362423511565  -1.6798420229930882  -0.8822610585574063 
H  4.466054949546522  -1.0255745040047888  -0.992979727485069 
C  1.7850439479600309  -3.602459296561592  -0.6723492466170283 
H  1.0968745143673146  -4.253378484428293  -0.6033154756376319 
C  0.07458711274077401  6.786041300880401  1.2050566769378608 
H  -0.12581670564357617  7.7032515219230735  1.3491877283869589 
C  1.5215700646259198  -2.2791472279505163  -0.34687356109026535 
C  1.255944071389912  4.793686960611415  1.8228359085915236 
H  1.8778554156826208  4.351309091324412  2.388667147217605 
C  4.045066576416728  -3.0000790537042104  -1.2008604214078396 
H  4.914989021475286  -3.2446895110124805  -1.493839403177478 
O  0.49665439763254166  -4.096855142439145e-15  -1.885262089024298 
O  -1.8566543976325423  6.665968880582452e-16  -0.594737910975702 
O  0.36055996838406756  -0.43135831931974206  -4.035105443011118 
C  -0.18020755302990832  -0.09074731529413552  -2.8987247841997834 
C  -1.6273161708262087  0.21914428751206555  -2.9782928230715524 
C  -2.160764617837886  0.5658876541984837  -4.142414106288994 
C  1.769961938154046  -0.670549011337152  -4.026576054944762 
C  -4.078299668685026  0.5981650032042627  -5.648708659659597 
C  -4.191815649382649  1.9627745108168733  -3.710382120126158 
C  -2.3805733338534942  0.011022890958690629  -1.694243092475106 
O  -3.6208498132800457  -0.23880124014822354  -1.8790539636325525 
C  -5.2885758994035  1.0130448878868177  -5.997512080863748 
C  -5.982684126219726  1.8997461753966467  -5.183129310789082 
C  -4.44283769935024  -0.41120506215820896  -0.6881870242517403 
C  -3.5001641099020597  1.037162146231883  -4.459599310573323 
C  -5.425990164879786  2.420288739973975  -4.100395062752691 
H  -1.586660594525792  0.49681655611844283  -4.871368517639182 
H  2.0542652693791275  -0.9391331063302174  -4.90251704026917 
H  1.972032803128208  -1.3660311497357733  -3.3954192989030556 
H  2.2285529865098392  0.13447622752700045  -3.7731971387744365 
H  -3.613887839706682  0.012398301311426134  -6.200587563096371 
H  -3.8141955703904094  2.285077851863801  -2.9244938505280573 
H  -5.672919375457996  0.710419016104238  -6.789307391624163 
H  -6.855946531925046  2.133303403468597  -5.402476847809844 
H  -5.341496337729554  -0.6268519112831333  -0.9483046286708683 
H  -4.444293807367163  0.402376297523772  -0.1779159581236578 
H  -4.086583452276761  -1.123836145298532  -0.15308409883986385 
H  -5.86185623244802  3.0798284454637237  -3.6128966955501465 
O  0.0  0.0  1.88 
H  -0.6511917182125614  0.10287963460190092  2.323400729493708 
