66

Ru  0.0  0.0  0.0 
N  0.15914750520617638  1.9861301199191015  4.620933837234059e-15 
N  1.82491628117277  0.025600519271676114  7.803120482497373e-15 
N  0.4159362136210538  -2.011730639190777  -1.243099321363534e-14 
N  2.1320402888013157  -3.549982907485928  -0.14813538481578337 
C  -0.7054436869101404  3.0185487365666077  -0.08515762158805246 
C  -0.26007189203136516  4.356884464187751  -0.03442711302324596 
H  -0.8986914738233442  5.056512728141082  -0.11218727010568427 
C  1.0571428243002807  4.681519081027393  0.12278324486936071 
H  1.3318188051982447  5.589276128867994  0.17079353140729228 
C  1.9948353426754422  3.6379899036267718  0.21103627256152085 
C  1.4881277706595861  2.3242260710586273  0.11581537833312561 
C  3.4117931770729646  3.8148589380377445  0.3652897658963931 
H  3.759720133548228  4.695272368084186  0.44179182568382097 
C  4.271079660138245  2.764760706304926  0.405626396059458 
H  5.199926638214259  2.922074160602226  0.5307520465716848 
C  3.7895844004778594  1.4208913872963578  0.2612383482437781 
C  2.4065726313546056  1.2379270996460308  0.12186042348100282 
C  4.58167539597954  0.24678782813108938  0.263092317123338 
H  5.52482348975886  0.3134790454872703  0.35501573485780835 
C  3.988918799528083  -0.9923192066797278  0.13141956502318586 
H  4.523488975693431  -1.7778742482726781  0.12217816997454793 
C  2.5949923076902746  -1.0883720926111047  0.010790429002932672 
C  1.75289158998351  -2.2621080775281794  -0.06792805007597387 
C  0.9176492535694083  -4.2054943355606005  -0.12181711716992732 
C  -0.15058391392171155  -3.2659927368430175  -0.011101147775283655 
C  0.6484583302938691  -5.586772437085686  -0.17423374691008828 
H  1.3516775036145596  -6.219439420543496  -0.26444135366560856 
C  -0.6597719343901722  -5.990685423874401  -0.0914020882997299 
H  -0.8624065188151941  -6.917598469750403  -0.13158965577737106 
C  -1.7152031960674916  -5.056772710435003  0.05389676080268139 
H  -2.6071954983645442  -5.374068228627414  0.12474664984855205 
C  -1.4791352507682431  -3.6977362381439445  0.09453679260463163 
H  -2.19260760360837  -3.0770646901491285  0.1906386200716056 
C  -2.16156291353117  2.7361096488797507  -0.2450687832097067 
H  -2.3045267419660966  2.199753420872636  -1.0526632980729569 
H  -2.652033969465692  3.5808549100387768  -0.3237730844888988 
H  -2.4869143980960784  2.24169416855112  0.5369487321330237 
O  2.218485767839011  0.15946945283477607  -1.6186713896168383 
O  -0.8804400225458116  0.14892076351272282  -4.1491233257029005 
O  -1.9838835608190641  -2.2898349882893854e-15  -0.016116439180935416 
N  -0.01611643918093586  -4.440892098500626e-16  -1.9838835608190641 
C  1.3159797903791925  0.15368657646796954  -2.4384442843811396 
C  1.5049574036941735  0.24992203868495952  -3.8826175071898446 
C  2.7730150777056823  0.32807363654160787  -4.470279547084394 
H  3.549598925483073  0.3896539839617129  -3.9261550868890094 
C  2.8872907904865692  0.3141578537343992  -5.849311237241403 
H  3.7465060235387684  0.3422793776603066  -6.252506206434953 
C  1.7431672445645425  0.25879656026339487  -6.6506802963221325 
H  1.834430279602982  0.2439283723547256  -7.596085857668086 
C  0.4792750427562442  0.22523298329371017  -6.085023193026263 
H  -0.3001425596353836  0.20957360670029238  -6.628473655356341 
C  0.38599878067932664  0.21552256893714983  -4.700909586133422 
C  -1.030428508954533  0.040321866907892356  -2.8150446235263473 
C  -2.418673962422235  -0.04947441271352713  -2.410628836133695 
C  -3.4171561835492668  -0.06866913796795912  -3.4124319837708423 
H  -3.159460636246811  -0.0037476764762669514  -4.324453556288878 
C  -4.7466702871807165  -0.17918370741349324  -3.100918247018499 
H  -5.402686378148752  -0.1925709204499614  -3.787826662251696 
C  -5.126893946759152  -0.2720286235684763  -1.7520146625318127 
H  -6.044880884578475  -0.3692286829465397  -1.5292967906623556 
C  -4.1916745674469365  -0.2237764017741554  -0.7546029543336112 
H  -4.476828907604494  -0.27586380215648  0.15054318580660775 
C  -2.808916875256588  -0.09948967494863738  -1.0384779870918872 
O  0.0  0.0  1.88 
H  -0.6511917182125614  0.10287963460190092  2.323400729493708 
