16
Ligand ID: unq_CSD-PALREA-02-b  ===  Stoichiometry: C5H10  ===  Charge: -2  ===  Donors: C-H
Cu  0.0  0.0  0.0 
C  -0.14840000000000053  1.8179000000000003  0.07529999999999948 
C  -0.6764000000000001  3.2275000000000005  -0.08180000000000032 
C  -0.2671999999999999  4.0794999999999995  1.110199999999999 
C  -2.2150000000000003  3.1721  -0.1515000000000004 
C  -0.16360000000000063  3.8059  -1.4026000000000005 
H  0.6899999999999995  1.8176  0.4402999999999997 
H  0.7709999999999999  4.3302  0.9955999999999996 
H  -0.5470000000000006  3.6875000000000004  1.9642999999999997 
H  -0.6491000000000007  4.9976  1.0664999999999996 
H  -2.5359000000000003  2.8188  0.7711000000000006 
H  -2.6227000000000005  4.1426  -0.31570000000000054 
H  -2.4938000000000002  2.5733  -0.9537000000000004 
H  -0.5099  4.683199999999999  -1.6034000000000006 
H  -0.22740000000000027  3.1691  -2.1705000000000005 
H  0.9208999999999996  4.032299999999999  -0.9182000000000006 
48
Ligand ID: unq_CSD-PECPET-02-a  ===  Stoichiometry: C24H20N1P2  ===  Charge: -1  ===  Donors: N-P
Cu  0.0  0.0  0.0 
C  2.3356999999999997  1.2132000000000005  -3.594100000000001 
C  2.3867  2.129200000000001  -4.626800000000001 
H  2.1157999999999997  3.0264000000000006  -4.473800000000001 
C  2.8253999999999997  1.7560000000000002  -5.875500000000001 
H  2.8384000000000005  2.394300000000001  -6.581300000000001 
C  3.2449999999999997  0.4693000000000005  -6.1151 
H  3.5650999999999997  0.22680000000000078  -6.976700000000001 
C  3.2020000000000004  -0.4555999999999987  -5.1187000000000005 
H  3.4829000000000003  -1.3489999999999993  -5.2804 
C  2.7425  -0.07979999999999876  -3.8653000000000013 
H  2.7066000000000003  -0.7294999999999998  -3.173 
C  2.5882  3.248800000000001  -1.7231000000000005 
C  3.9678  3.338000000000001  -1.9745000000000008 
H  4.43  2.5853  -2.3229000000000006 
C  4.6546  4.4991  -1.7234999999999996 
H  5.588600000000001  4.543100000000001  -1.8918999999999997 
C  4.0092  5.579700000000001  -1.2355 
H  4.4952000000000005  6.375200000000001  -1.053700000000001 
C  2.6518  5.540800000000001  -0.9983000000000004 
H  2.1997000000000004  6.3148  -0.6820000000000004 
C  1.9449  4.3596  -1.2205000000000013 
H  1.0151  4.3194  -1.0259999999999998 
C  -1.9993999999999998  1.7346000000000004  -3.6439000000000004 
C  -3.3462  2.094000000000001  -3.7388000000000012 
H  -3.6513999999999998  2.884400000000001  -3.3074000000000012 
C  -4.2479  1.3112000000000013  -4.456000000000001 
H  -5.159  1.5725000000000016  -4.509400000000001 
C  -3.8303  0.16389999999999993  -5.0839 
H  -4.4482  -0.3675999999999995  -5.573 
C  -2.4976  -0.2142999999999997  -5.0001 
H  -2.199  -1.0071999999999992  -5.4307 
C  -1.6023999999999998  0.5698000000000008  -4.287600000000001 
H  -0.6922999999999999  0.3033999999999999  -4.236600000000001 
C  -1.6790999999999998  3.9160000000000004  -1.8697 
C  -2.1976  3.5692000000000004  -0.6401000000000003 
H  -2.0919  2.6746  -0.33800000000000097 
C  -2.8657  4.468900000000001  0.17169999999999952 
H  -3.2041999999999997  4.195  1.0143000000000004 
C  -3.0316  5.753200000000001  -0.25420000000000087 
H  -3.4804  6.381400000000001  0.2986000000000004 
C  -2.5515999999999996  6.138900000000001  -1.477500000000001 
H  -2.6944999999999997  7.027300000000002  -1.7812000000000001 
C  -1.8617  5.2392  -2.2719000000000005 
H  -1.5056999999999998  5.5282  -3.1057000000000006 
N  0.11980000000000013  1.7698  -1.8524000000000012 
P  1.7706000000000004  1.6153000000000013  -1.8915000000000006 
P  -0.6726000000000001  2.808300000000001  -2.9269999999999996 
17
Ligand ID: unq_CSD-PALVAZ-02-b  ===  Stoichiometry: C6H10  ===  Charge: 0  ===  Donors: C-C
Cu  0.0  0.0  0.0 
C  -0.2578000000000005  -2.041  -0.6852000000000018 
C  0.6379999999999999  -2.0215  0.4726999999999997 
C  0.2837999999999994  -2.6857  1.779399999999999 
C  -0.8684000000000003  -3.6858  1.625399999999999 
C  -2.0086000000000004  -3.0456  0.8782999999999994 
C  -1.6017000000000001  -2.7412  -0.5542000000000016 
H  0.2088000000000001  -2.032  -1.6094000000000008 
H  1.5648999999999997  -2.1969  0.21340000000000003 
H  1.0804  -3.1414999999999997  2.2414999999999985 
H  0.01809999999999956  -1.912  2.395599999999998 
H  -0.4944000000000006  -4.5659  1.0863000000000014 
H  -1.2052000000000005  -3.9512  2.4983000000000004 
H  -2.7860000000000005  -3.5614  0.9321999999999981 
H  -2.2758000000000003  -2.2419000000000002  1.4456999999999987 
H  -2.2818000000000005  -2.2869  -1.044599999999999 
H  -1.4941000000000004  -3.6813000000000002  -1.0188999999999986 
31
Ligand ID: unq_CSD-PAHHOY-02-a  ===  Stoichiometry: C8H18O2Si2  ===  Charge: 0  ===  Donors: C-C
Cu  0.0  0.0  0.0 
Si  3.1458000000000013  2.8149  -0.5879000000000003 
Si  2.441700000000001  -0.6764999999999999  -4.0011 
O  2.8544  1.2917  -1.2156000000000002 
O  1.1430000000000007  -0.8706999999999998  -2.9508 
C  1.6952999999999996  0.6039999999999996  -0.9893999999999998 
C  1.0739999999999998  -0.34109999999999996  -1.6909 
C  4.3529  3.5375  -1.8013000000000003 
H  5.1640000000000015  2.9869  -1.8220999999999998 
H  4.5852  4.449999999999999  -1.5276000000000005 
H  3.9481  3.557  -2.6934 
C  3.8582  2.6724  1.1143 
H  3.2492  2.1540000000000004  1.6806 
H  3.9762000000000004  3.5673999999999997  1.4943 
H  4.7265  2.2197  1.0682999999999998 
C  1.594100000000001  3.8221000000000003  -0.5412999999999997 
H  1.2350000000000012  3.9118  -1.4495000000000005 
H  1.7922000000000011  4.7112  -0.17830000000000013 
H  0.9328000000000003  3.3774  0.028500000000000192 
C  2.511700000000001  1.0711  -4.6428 
H  1.7013999999999996  1.2616  -5.1605 
H  3.2988  1.1769000000000003  -5.2167 
H  2.571200000000001  1.6934999999999998  -3.8879 
C  2.0220000000000002  -1.8392  -5.3837 
H  1.9903000000000013  -2.7565999999999997  -5.0413 
H  2.7056000000000004  -1.7751  -6.0838 
H  1.1484000000000005  -1.6002999999999998  -5.7578000000000005 
C  4.0305  -1.1284999999999998  -3.1578 
H  4.184800000000001  -0.5204  -2.4043 
H  4.771000000000001  -1.0543999999999998  -3.7948 
H  3.9743000000000013  -2.0495  -2.8276 
23
Ligand ID: unq_CSD-PEDFUZ-02-a  ===  Stoichiometry: C8H14  ===  Charge: 0  ===  Donors: C-C
Cu  0.0  0.0  0.0 
C  1.0451000000000001  -2.1038  -0.8050000000000002 
C  1.4815  -1.1315  -1.6757000000000004 
C  2.867  -0.6403  -1.7686000000000002 
C  3.7598  -1.5023  -2.6045000000000003 
C  4.2255  -2.8155  -1.9659000000000002 
C  3.1772  -3.8881  -1.8499 
C  2.5391  -4.0685  -0.44510000000000005 
C  1.9449  -2.8155  0.15859999999999985 
H  0.32620000000000005  -2.5849  -1.0140000000000002 
H  0.9373999999999999  -1.0513  -2.5232 
H  3.2318  -0.6303  -0.863 
H  2.8638999999999997  0.2519  -2.0937 
H  4.5341000000000005  -0.9911  -2.8599 
H  3.2903  -1.7229  -3.4172000000000002 
H  4.5364  -2.6351  -1.0836000000000001 
H  4.9575000000000005  -3.1763  -2.4652000000000003 
H  3.5443000000000002  -4.7301  -2.1401000000000003 
H  2.4614  -3.6675  -2.4768 
H  3.201  -4.4093  0.15859999999999985 
H  1.8279  -4.7301  -0.49150000000000027 
H  1.4453  -3.036  0.9596999999999998 
H  2.6445  -2.2241  0.42569999999999997 
25
Ligand ID: unq_CSD-PADPAL-02-a  ===  Stoichiometry: C13H10O1  ===  Charge: 0  ===  Donors: O-C
Cu  0.0  0.0  0.0 
O  0.6589999999999998  -0.9716999999999999  -1.4268999999999998 
C  0.1227999999999998  -2.0316  -0.6913999999999998 
C  1.1336000000000004  -2.8331999999999997  0.034399999999999764 
C  2.4881  -2.6188  -0.2179000000000002 
C  3.4639999999999995  -3.3202  0.5099 
C  3.0752999999999995  -4.2155000000000005  1.4743999999999993 
C  1.766000000000001  -4.4392  1.7052999999999994 
C  0.7881999999999998  -3.7629  1.0164000000000009 
C  -1.0329999999999995  -2.7081  -1.3551000000000002 
C  -1.1495999999999995  -4.0988  -1.4171999999999993 
C  -2.2077999999999998  -4.6823  -2.0965000000000007 
C  -3.1597  -3.9213  -2.6903000000000006 
C  -3.0667999999999997  -2.5408  -2.6554 
C  -1.9913999999999996  -1.942  -1.9955999999999996 
H  2.7474  -1.9759  -0.8912999999999993 
H  4.406  -3.1806  0.3313000000000006 
H  3.752300000000001  -4.691599999999999  2.0002999999999993 
H  1.5065999999999997  -5.103199999999999  2.3689999999999998 
H  -0.14789999999999992  -3.9318  1.2240000000000002 
H  -0.4820000000000002  -4.6511  -0.9883000000000006 
H  -2.2589999999999995  -5.654999999999999  -2.1526999999999994 
H  -3.9135  -4.3479  -3.123099999999999 
H  -3.7426999999999997  -1.9916  -3.0843000000000007 
H  -1.9073000000000002  -0.9653999999999999  -1.9780999999999995 
15
Ligand ID: unq_CSD-PAFKOY-02-a  ===  Stoichiometry: C5H7N2  ===  Charge: -1  ===  Donors: N-N
Cu  0.0  0.0  0.0 
N  -1.9104999999999999  0.885  -1.0516000000000005 
N  -2.0551  -0.4888000000000001  -1.1321000000000012 
C  -2.9443  1.4579000000000002  -1.6791000000000018 
C  -3.7809  0.46009999999999995  -2.1655000000000015 
H  -4.5893999999999995  0.5770000000000002  -2.6493 
C  -3.1927  -0.7455  -1.7963000000000022 
C  -3.0117  2.9404000000000003  -1.8129000000000026 
H  -3.4844  3.3171  -1.0408000000000008 
H  -3.4916  3.1726  -2.6347000000000005 
H  -2.1031  3.3064  -1.8512000000000022 
C  -3.6317  -2.1555  -2.054500000000001 
H  -2.9358  -2.7737  -1.7486999999999995 
H  -3.7813999999999997  -2.2801  -3.0154000000000014 
H  -4.4632  -2.3324  -1.5680000000000014 
3
Ligand ID: unq_CSD-PACKOU-02-a  ===  Stoichiometry: O2  ===  Charge: -2  ===  Donors: O-O
Cu  0.0  0.0  0.0 
O  -1.6003  0.9973999999999998  0.0714999999999999 
O  -1.4097  0.3104  1.1704000000000003 
45
Ligand ID: unq_CSD-PECQOG-02-a  ===  Stoichiometry: C14H28P2  ===  Charge: 0  ===  Donors: C-C
Cu  0.0  0.0  0.0 
P  -1.5702  1.4356999999999998  2.8407 
P  -3.3537999999999997  -1.4851  -0.14210000000000012 
C  -1.5034  0.3841000000000001  1.3550000000000004 
C  -1.9893  -0.4855999999999998  0.49270000000000014 
C  -1.8102  3.0923  2.0046999999999997 
H  -1.1552  3.1102999999999996  1.2487000000000004 
C  -1.3822999999999999  4.235900000000001  2.9548000000000005 
H  -0.5059  4.0282  3.3413000000000004 
H  -1.3271  5.074400000000001  2.4524999999999997 
H  -2.0421  4.3271999999999995  3.6734999999999998 
C  -3.1722  3.3693999999999997  1.3765 
H  -3.4148  2.6292  0.7812000000000001 
H  -3.8464  3.4555000000000007  2.0826000000000002 
H  -3.1311  4.201700000000001  0.8616999999999999 
C  -3.1794000000000002  0.9687000000000001  3.6452 
H  -3.9075999999999995  0.9134000000000002  2.9628000000000005 
C  -3.5370999999999997  1.9800000000000004  4.7206 
H  -3.6795  2.8586  4.308800000000001 
H  -4.3566  1.6969000000000003  5.1770000000000005 
H  -2.8057  2.0395000000000003  5.370500000000001 
C  -2.9577999999999998  -0.40749999999999975  4.303999999999999 
H  -2.7262  -1.0651000000000002  3.6153000000000004 
H  -2.2276  -0.34389999999999965  4.954400000000001 
H  -3.7785  -0.6865999999999999  4.7609 
C  -4.7039  -1.3115  1.1250999999999998 
H  -4.3118  -1.3382  2.045 
C  -5.3977  0.03530000000000033  0.8925000000000001 
H  -4.7464  0.7611999999999997  0.9935999999999998 
H  -5.7726  0.05830000000000002  -0.01330000000000009 
H  -6.1173  0.1487999999999996  1.5467000000000004 
C  -5.7313  -2.4358  0.9632000000000005 
H  -5.2952  -3.3004  1.1100000000000003 
H  -6.4514  -2.3173  1.6185999999999998 
H  -6.1056  -2.4078  0.05860000000000021 
C  -2.5927  -3.1675  0.1362000000000001 
H  -1.6579  -3.0930999999999997  -0.2102999999999997 
C  -2.4488  -3.5780000000000003  1.5898000000000003 
H  -2.0204  -2.8552  2.0929 
H  -3.3349  -3.7580999999999998  1.9679000000000002 
H  -1.8981999999999999  -4.3866  1.6477000000000004 
C  -3.2557  -4.244  -0.7254 
H  -3.324  -3.9257  -1.6503999999999999 
H  -2.7174  -5.0616  -0.6982999999999997 
H  -4.1529  -4.433  -0.3780999999999999 
16
Ligand ID: unq_CSD-PADQAM-02-a  ===  Stoichiometry: C7H6N1O1  ===  Charge: -1  ===  Donors: O-C
Cu  0.0  0.0  0.0 
O  -0.6966999999999999  0.8957999999999999  2.0861 
N  -7.020099999999999  0.08600000000000008  2.0223000000000004 
C  -1.4681  0.41470000000000007  1.2288999999999999 
C  -2.8988  0.3152999999999999  1.4066 
C  -3.7601  -0.06489999999999996  0.37539999999999996 
C  -5.121  -0.12459999999999993  0.5706000000000002 
C  -5.6713000000000005  0.15620000000000012  1.8182999999999998 
C  -4.809  0.5274000000000001  2.8457999999999997 
C  -3.4659999999999997  0.6124  2.6505 
H  -7.2113  0.14939999999999998  2.7957 
H  -7.5443999999999996  -0.14969999999999994  1.3565 
H  -3.3964  -0.35339999999999994  -0.48309999999999986 
H  -5.7285  -0.35409999999999997  -0.19530000000000003 
H  -5.0937  0.7248000000000001  3.6841999999999997 
H  -2.85  0.7647999999999999  3.2713 
16
Ligand ID: unq_CSD-PAHKIV-02-b  ===  Stoichiometry: C7H8  ===  Charge: 0  ===  Donors: C-C
Cu  0.0  0.0  0.0 
C  -1.187  1.3330000000000002  1.0748000000000002 
H  -1.4366999999999999  1.7034000000000002  0.23649999999999993 
C  0.15689999999999998  1.4070999999999998  1.501 
H  0.8154999999999999  1.8321000000000005  0.9666000000000001 
C  0.49400000000000005  0.8326000000000011  2.7392999999999996 
H  1.3859000000000001  0.8846000000000007  3.0624 
C  -0.4561  0.21000000000000085  3.4640999999999997 
H  -0.2033  -0.19159999999999933  4.2867999999999995 
C  -1.8023  0.12300000000000111  3.0677 
C  -2.1517000000000004  0.7195  1.8799999999999994 
H  -3.0602  0.7142999999999997  1.6023 
C  -2.8094  -0.5658999999999992  3.9776000000000002 
H  -2.9446000000000003  -0.026500000000000412  4.7844999999999995 
H  -2.4708  -1.4509999999999987  4.229100000000001 
H  -3.6625  -0.6660000000000004  3.5043 
11
Ligand ID: unq_CSD-PALLAP-02-a  ===  Stoichiometry: C4H6  ===  Charge: 0  ===  Donors: C-C
Cu  0.0  0.0  0.0 
C  0.4322  -0.4321999999999999  2.1849000000000003 
C  1.3394  -1.3394  2.9038 
H  2.1483  -1.0844  2.4664 
H  1.4504  -1.4523000000000001  3.8588999999999998 
C  -0.4322  0.4321999999999999  2.1849000000000003 
H  1.0844  -2.1483  2.4664 
C  -1.3394  1.3394000000000004  2.9038 
H  -2.1483  1.0843999999999996  2.4664 
H  -1.0844  2.1483  2.4664 
H  -1.4504  1.4523000000000001  3.8588999999999998 
27
Ligand ID: unq_CSD-PACVAQ-02-a  ===  Stoichiometry: C11H14Si1  ===  Charge: 0  ===  Donors: C-C
Cu  0.0  0.0  0.0 
C  0.7918000000000003  -1.7883  0.7759999999999998 
C  1.738900000000001  -0.8720999999999999  0.8551000000000002 
C  3.7156000000000002  -1.8908  2.922599999999999 
C  4.6066  -1.0187  0.16530000000000022 
C  3.6426999999999996  0.9744999999999999  2.2489999999999988 
C  0.690900000000001  -3.233  1.0759999999999987 
C  1.7309999999999999  -4.0829  0.7921999999999993 
C  1.6151  -5.4352  1.0184999999999995 
C  0.4703999999999997  -5.9496  1.5646000000000004 
C  -0.557599999999999  -5.1117  1.8609999999999989 
C  -0.46860000000000035  -3.7534  1.623899999999999 
Si  3.4353  -0.6993  1.5251000000000001 
H  3.0877  -1.7099  3.6267999999999994 
H  4.6089  -1.7863  3.2568 
H  3.5930999999999997  -2.7889  2.6083 
H  5.506500000000001  -0.9322999999999999  0.4903999999999993 
H  4.4605999999999995  -0.3837999999999999  -0.5407000000000011 
H  4.4725  -1.9068  -0.17239999999999966 
H  3.0061  1.0991  2.9567999999999994 
H  3.5007  1.6376  1.5700000000000003 
H  4.5318000000000005  1.0629  2.5992999999999995 
H  2.5221  -3.7413  0.4419000000000004 
H  2.3192000000000004  -6.0038  0.8011999999999997 
H  0.39610000000000056  -6.8618  1.7280999999999995 
H  -1.3357999999999999  -5.4593  2.2327999999999992 
H  -1.1822  -3.1928  1.8286999999999995 
19
Ligand ID: unq_CSD-PAHWIH-02-a  ===  Stoichiometry: C5H12Si1  ===  Charge: 0  ===  Donors: C-C
Cu  0.0  0.0  0.0 
Si  -0.7459999999999996  2.2341  2.1991 
C  1.3587000000000007  1.4141000000000001  0.4455999999999998 
H  1.8597000000000001  1.2949000000000002  1.2908 
H  1.9173  1.7419000000000002  -0.30379999999999985 
C  0.05710000000000015  1.9647000000000001  0.5533000000000001 
H  -0.19299999999999962  2.6198  -0.15969999999999995 
C  0.19450000000000056  3.5144  3.1849 
H  1.1182000000000007  3.2123  3.3157 
H  -0.2353999999999994  3.6364  4.0576 
H  0.19450000000000056  4.3649000000000004  2.6985 
C  -0.7834999999999996  0.6587000000000001  3.2051 
H  -1.2725999999999997  -0.03249999999999975  2.7122 
H  -1.2307999999999995  0.8275000000000001  4.0614 
H  0.13320000000000043  0.3549000000000002  3.3703000000000003 
C  -2.4809999999999994  2.9173  2.0214 
H  -2.4379999999999997  3.8336  1.6764000000000001 
H  -2.9234999999999998  2.9178  2.8952 
H  -2.9898999999999996  2.3577000000000004  1.3979 
42
Ligand ID: unq_CSD-PARGUL-02-a  ===  Stoichiometry: C20H19N1P1  ===  Charge: -1  ===  Donors: N-P
Cu  0.0  0.0  0.0 
N  -0.8047999999999993  1.9080999999999997  0.3214000000000006 
P  0.6695000000000002  2.3649  0.9414000000000016 
C  -1.9854999999999992  2.756  0.0835000000000008 
H  -1.7295999999999996  3.4682  -0.5701999999999998 
C  -3.1022999999999996  1.9221  -0.5383999999999993 
H  -2.7630999999999997  1.4662000000000002  -1.337299999999999 
H  -3.8473999999999995  2.5086  -0.7871999999999986 
H  -3.4132999999999996  1.2567999999999997  0.11129999999999995 
C  -2.4886  3.4313  1.3419000000000025 
C  -2.7479999999999993  4.786899999999999  1.3503000000000007 
H  -2.5888  5.300600000000001  0.566200000000002 
C  -3.2395999999999994  5.410300000000001  2.4888000000000012 
H  -3.4145999999999996  6.344000000000001  2.4773999999999994 
C  -3.4736999999999996  4.684200000000001  3.630700000000001 
H  -3.8161999999999994  5.1111  4.407500000000002 
C  -3.2036999999999995  3.3186000000000004  3.6417 
H  -3.3452999999999995  2.8129000000000004  4.434200000000001 
C  -2.7306  2.6971000000000003  2.502700000000001 
H  -2.5683999999999996  1.7615000000000003  2.5097000000000023 
C  0.5435000000000008  3.0942000000000003  2.6084999999999994 
C  0.3349000000000002  4.454700000000001  2.8169000000000004 
H  0.32310000000000016  5.0502  2.0776000000000003 
C  0.1471  4.9415  4.092100000000002 
H  0.0127000000000006  5.872200000000001  4.2286 
C  0.1526000000000005  4.089700000000001  5.161300000000001 
H  0.01070000000000082  4.4308  6.037000000000003 
C  0.36050000000000004  2.7470000000000003  4.979000000000003 
H  0.36460000000000026  2.1605000000000003  5.726700000000001 
C  0.5644  2.2463  3.7021000000000015 
H  0.7180000000000009  1.3165999999999998  3.5776000000000003 
C  1.4083000000000006  3.6547000000000005  -0.1001999999999974 
C  0.9894999999999996  3.8213000000000004  -1.4100000000000001 
H  0.2535000000000007  3.3146  -1.7313999999999972 
C  1.6255000000000006  4.716100000000001  -2.2616999999999976 
H  1.3257000000000012  4.8208  -3.1571 
C  2.6987000000000005  5.450200000000001  -1.7942 
H  3.1430000000000007  6.062700000000001  -2.3689999999999998 
C  3.1256000000000004  5.291600000000001  -0.4861000000000004 
H  3.8581000000000003  5.804400000000001  -0.1647999999999996 
C  2.5006000000000004  4.399900000000001  0.35050000000000026 
H  2.8124000000000002  4.289199999999999  1.2401000000000018 
39
Ligand ID: unq_CSD-OZOHAN-02-a  ===  Stoichiometry: C16H19P1S1Si1  ===  Charge: -2  ===  Donors: C-S
Cu  0.0  0.0  0.0 
C  -0.23309999999999853  -0.5985000000000014  -3.2803000000000004 
H  0.6850000000000005  -0.7929000000000013  -3.0007 
H  -0.464599999999999  0.3193999999999999  -3.0251 
H  -0.30629999999999846  -0.6942000000000004  -4.2533 
C  -3.1045999999999996  -1.542300000000001  -3.199 
H  -3.476799999999999  -0.690100000000001  -2.8908000000000005 
H  -3.6945999999999994  -2.274700000000001  -2.9244000000000003 
H  -3.030999999999999  -1.533100000000001  -4.1770000000000005 
C  -0.8453999999999997  -3.514900000000001  -2.8679000000000006 
H  -0.6380999999999997  -3.5662000000000003  -3.8246 
H  -1.5597999999999992  -4.151200000000001  -2.655900000000001 
H  -0.045700000000000074  -3.7360000000000007  -2.3476999999999997 
C  -1.4594999999999985  -1.5159000000000002  -0.5763999999999996 
C  -2.9954  -3.8530000000000015  -0.0343 
C  -4.176  -3.1927000000000003  -0.3556000000000008 
H  -4.2249  -2.249500000000001  -0.26040000000000063 
C  -5.281699999999999  -3.8915000000000006  -0.8126999999999995 
H  -6.0777  -3.4253  -1.0431000000000008 
C  -5.2258  -5.2605  -0.9333000000000009 
H  -5.988299999999999  -5.737400000000001  -1.2384000000000004 
C  -4.085799999999999  -5.9362  -0.6189999999999998 
H  -4.0550999999999995  -6.881900000000001  -0.7028999999999996 
C  -2.9662999999999986  -5.238900000000001  -0.1734000000000009 
H  -2.171099999999999  -5.714200000000001  0.038600000000000634 
C  -1.8160999999999987  -2.4583000000000013  2.178799999999999 
C  -0.7283999999999988  -2.290000000000001  3.0214999999999996 
H  0.14740000000000109  -2.4130000000000003  2.6767000000000003 
C  -0.8929999999999989  -1.9458000000000002  4.3596 
H  -0.13429999999999964  -1.8175000000000008  4.916500000000001 
C  -2.1564999999999994  -1.7946000000000009  4.869200000000001 
H  -2.2779999999999987  -1.5807000000000002  5.787699999999999 
C  -3.2341999999999995  -1.9495000000000005  4.058999999999999 
H  -4.1065999999999985  -1.8330000000000002  4.4145 
C  -3.0778999999999996  -2.2769000000000013  2.7179 
H  -3.8453  -2.3782000000000014  2.1654999999999998 
P  -1.4314999999999998  -3.021600000000001  0.46969999999999956 
S  -2.2833999999999985  -0.047900000000000276  -0.11240000000000094 
Si  -1.4054000000000002  -1.7912  -2.4467 
7
Ligand ID: unq_CSD-PABJIP-02-a  ===  Stoichiometry: C2H4  ===  Charge: 0  ===  Donors: C-C
Cu  0.0  0.0  0.0 
C  -0.5015999999999998  -1.0969  1.8392999999999988 
H  0.1897000000000002  -1.719  2.181 
H  -0.9468999999999994  -0.577  2.553399999999999 
C  -1.3265999999999996  -1.5856  0.8167999999999997 
H  -2.2892999999999994  -1.3669  0.8831999999999995 
H  -1.1510999999999996  -2.5107  0.5108999999999995 
56
Ligand ID: unq_CSD-PACLIQ-02-a  ===  Stoichiometry: C16H36P3  ===  Charge: -1  ===  Donors: P-P
Cu  0.0  0.0  0.0 
C  2.5138  2.136899999999999  -1.0417000000000005 
C  3.0676000000000005  0.8574999999999999  -1.7030000000000012 
H  2.3263  0.25450000000000017  -1.9201000000000015 
H  3.682500000000001  0.41140000000000043  -1.0851000000000006 
H  3.545300000000001  1.0952000000000002  -2.524300000000001 
C  1.6605000000000008  2.8476999999999997  -2.0913000000000004 
H  2.2232000000000003  3.102599999999999  -2.8531000000000004 
H  1.2606000000000002  3.6516  -1.6980000000000004 
H  0.9503000000000004  2.2471999999999994  -2.397800000000001 
C  3.691700000000001  3.0021000000000004  -0.6025000000000009 
H  4.1791  2.5487  0.11709999999999887 
H  3.359300000000001  3.864799999999999  -0.2774000000000001 
H  4.290900000000001  3.146699999999999  -1.3630000000000013 
C  1.0175  3.046199999999999  1.5649999999999995 
C  -0.1783999999999999  2.6075  2.3987999999999996 
H  0.0691000000000006  1.830499999999999  2.9421999999999997 
H  -0.9203999999999999  2.3673  1.804499999999999 
H  -0.45419999999999927  3.3428000000000004  2.9856 
C  2.1828000000000003  3.4016  2.5054999999999996 
H  1.9302000000000001  4.1638  3.0663 
H  2.9734999999999996  3.6343999999999994  1.974499999999999 
H  2.3887  2.6319999999999997  3.0762 
C  0.6182000000000007  4.293699999999999  0.780899999999999 
H  0.2730000000000006  4.9727  1.3987999999999996 
H  -0.0768999999999993  4.0609  0.1294999999999984 
H  1.4010000000000007  4.649099999999999  0.3094000000000001 
C  3.7759  -0.7135999999999996  3.7101999999999986 
C  4.6485  0.3452000000000002  3.0227999999999984 
H  5.575800000000001  0.25450000000000017  3.3293 
H  4.3161000000000005  1.239799999999999  3.247399999999999 
H  4.613300000000001  0.21780000000000044  2.0513999999999992 
C  3.9494000000000007  -0.5518000000000001  5.2325 
H  3.462900000000001  -1.2651000000000003  5.694099999999999 
H  3.5961  0.3182999999999989  5.511699999999999 
H  4.9026  -0.6058000000000003  5.4596 
C  4.2574000000000005  -2.0886000000000005  3.2734999999999985 
H  4.0413  -2.2234000000000007  2.3267999999999986 
H  3.811400000000001  -2.7749000000000006  3.810699999999999 
H  5.226800000000001  -2.1499000000000006  3.3999999999999986 
C  0.8447000000000005  -1.7773000000000003  3.673 
C  -0.5587999999999997  -1.2357000000000005  3.4644999999999992 
H  -1.2124999999999995  -1.9366000000000003  3.6716999999999995 
H  -0.6647999999999996  -0.9538000000000002  2.5314999999999994 
H  -0.7035999999999998  -0.4685000000000006  4.0564 
C  1.0563000000000002  -2.9955000000000007  2.7783999999999995 
H  0.35380000000000056  -3.6572000000000005  2.9545999999999992 
H  1.9326000000000008  -3.3925  2.9669999999999987 
H  1.0181000000000004  -2.721  1.8379999999999992 
C  0.9824000000000002  -2.1817  5.1457 
H  0.9613000000000005  -1.3778000000000006  5.707699999999999 
H  1.8328000000000007  -2.6499000000000006  5.2783999999999995 
H  0.24110000000000031  -2.7724  5.3926 
P  1.4502000000000006  1.6174999999999997  0.41809999999999903 
P  2.1154  -0.3009000000000004  1.1100999999999992 
P  1.9609000000000005  -0.2789999999999999  3.3230999999999984 
