41

Ru  0.0  0.0  0.0 
N  1.8738718443163196  0.026392271305581423  -2.0241849705706407e-15 
N  1.6465021593357894  -2.244789306347952  0.08012451359638173 
N  1.5198793111100395  2.281512611372011  0.10611285620914357 
O  0.20897725781159426  2.0184149709320827  5.704651702726117e-15 
C  3.8696387551813167  -1.491211737294536  0.18589238977762867 
H  4.49739766120973  -0.8065967002608054  0.19158246616676564 
C  2.508774877090213  -1.1618010601374302  0.08680873279154042 
C  2.4434780803073837  1.2520934288268533  0.08687564889600881 
C  1.8846593529396278  3.5805708336464077  0.22394203860507758 
H  1.225416111050324  4.236616151620797  0.2509973299020068 
C  4.303435134508569  -2.789515605467134  0.2744571523564119 
H  5.213123585895271  -2.971479546916383  0.3398733997718391 
C  2.0719071146629515  -3.521936325445944  0.17594473897812093 
H  1.4464750920166678  -4.2099319436622755  0.1783889901330309 
C  3.1890291875677335  3.946166500105903  0.3035576349306935 
H  3.4269119549668288  4.839822205936612  0.40427157840808364 
C  3.7938422518894255  1.6496761065871886  0.12005363033661849 
H  4.457326743076196  1.0003714663158627  0.06752217236375256 
C  4.157228049984663  2.9637148163630624  0.22927693807466687 
H  5.057677175030148  3.1954232069339534  0.2531349544187477 
C  3.3928418291624434  -3.824594806605156  0.2680798778369681 
H  3.675023779132516  -4.709139279625396  0.3249587171397639 
O  0.31715089787208633  -2.0448072422376637  -3.678732008679499e-15 
C  -0.3089125844573851  0.0034303535409262106  -2.91752336725917 
C  -2.338384264816513  0.0010593700320683326  -1.818516216664799 
C  -0.40725862927072765  -0.059489056101134814  -5.316976211838568 
H  -1.0568600609253869  -0.7661890974191213  -5.282614727682557 
H  0.18280249974534746  -0.20266236205493005  -6.06065616886754 
H  -0.8553156013200984  0.7823957523921877  -5.4213925852009 
N  0.46152371310464896  -5.376190422990737e-16  -1.8659968749283566 
N  -1.6341256677584441  0.07220689062843176  -2.9737227604407614 
N  -3.676268840966103  -0.07082350560739648  -2.0039379874761734 
N  -1.8215237131045505  -4.39740217050609e-16  -0.6140031250716985 
O  0.3558172666422208  -0.04941799813621307  -4.093742333600958 
H  1.235663737510412  -0.11909255258191967  -2.0671012173290864 
H  -4.2114774981505905  0.06979757266707173  -1.3428369773274118 
H  -4.003312612370224  -0.12806407403021192  -2.821411821254605 
H  -2.3786256682911007  -0.017619194697499382  -0.02976972521720156 
O  0.0  0.0  1.88 
H  -0.6511917182125614  0.10287963460190092  2.323400729493708 
