92

Cr  0.0  0.0  0.0 
O  0.30332  -2.08699  0.0 
N  0.29072  2.07743  0.0 
N  4.8524  0.18271  -0.38151 
N  1.80596  0.00956  0.0 
N  2.34155  -1.25622  -0.15869 
H  3.33612  -1.41803  -0.26293 
C  -0.60818  3.08813  0.18791 
H  -1.67708  2.86795  0.15387 
C  -0.16379  4.39615  0.38426 
H  -0.87462  5.20487  0.50066 
C  1.19605  4.69017  0.42897 
H  1.56547  5.68281  0.58024 
C  2.12189  3.64391  0.28097 
H  3.18542  3.84393  0.32967 
C  1.64895  2.35456  0.02846 
C  2.60487  1.20857  -0.07858 
C  6.09308  0.05255  -0.91088 
H  6.70361  -0.79198  -0.62917 
C  6.55841  0.99917  -1.81663 
H  7.54285  0.90786  -2.25196 
C  5.73883  2.07342  -2.1443 
H  6.07997  2.83669  -2.82907 
C  4.46347  2.16574  -1.59524 
H  3.88203  2.99634  -1.86937 
C  3.99401  1.18219  -0.72146 
C  1.50863  -2.30893  0.00278 
C  2.02842  -3.7081  0.12312 
C  1.14771  -4.79551  -0.01109 
H  0.08653  -4.63144  -0.15033 
C  1.64435  -6.09994  -0.04314 
H  0.96769  -6.93002  -0.19207 
C  3.01658  -6.34227  0.07446 
H  3.40465  -7.34929  0.02619 
C  3.89677  -5.27553  0.24857 
H  4.96337  -5.4498  0.33125 
C  3.41338  -3.9727  0.28042 
H  4.15038  -3.19271  0.39092 
C  1.51856  1.43516  -3.25521 
C  2.8784  -0.84889  -4.14843 
H  3.41512  -1.69735  -4.5443 
N  -1.93498  0.0  -0.06502 
C  1.06949  0.13536  -2.82795 
N  -0.06502  0.0  -1.93498 
C  -2.35934  0.11007  -1.42679 
C  -3.68913  -0.15033  3.31653 
H  -3.40849  -0.36978  4.34075 
C  1.22395  -2.42583  -3.13726 
H  0.76534  -2.81288  -4.0693 
H  0.41763  -2.43305  -2.38187 
C  3.37259  0.40732  -4.44145 
H  4.27493  0.5027  -5.02977 
C  -2.97262  0.00011  0.97251 
C  -4.94742  0.31585  3.00459 
H  -5.66191  0.45993  3.80402 
C  -1.40718  0.05351  -2.38733 
C  2.68327  1.53627  -4.03433 
H  3.07132  2.49473  -4.34216 
C  -4.30916  0.35114  0.64933 
C  -5.28489  0.50665  1.66337 
H  -6.30439  0.77692  1.42585 
C  -2.76452  -0.36081  2.31047 
H  -1.91991  -0.85555  2.64314 
C  1.73157  -1.01649  -3.35236 
C  -1.73525  0.03142  -3.86298 
H  -0.82777  0.1549  -4.48583 
H  -2.42171  0.86227  -4.1252 
C  0.7129  2.70145  -2.98661 
H  0.11205  2.55377  -2.12835 
H  -0.09569  2.78312  -3.73335 
C  -2.31201  -1.34535  -4.20239 
H  -2.56801  -1.39948  -5.27808 
H  -3.21463  -1.57852  -3.60165 
H  -1.55542  -2.12831  -3.97941 
C  -3.80419  0.3244  -1.73956 
H  -4.15855  0.40885  -2.75975 
C  -4.69888  0.4858  -0.7613 
H  -5.73913  0.67096  -1.01523 
C  1.44679  4.05119  -2.88 
H  0.74551  4.83137  -2.52274 
H  1.8936  4.36066  -3.84153 
H  2.23578  4.0665  -2.13932 
C  2.34592  -3.39882  -2.78352 
H  3.01875  -3.6134  -3.62807 
H  1.90897  -4.36764  -2.47306 
H  2.99758  -2.95082  -2.02049 
C  0.0  0.0  1.97 
C  0.06376  0.14115  3.50646 
O  1.49009  -0.00799  1.43104 
H  -0.88831  0.53923  3.91717 
H  0.23149  -0.86181  3.95588 
H  0.84816  0.8498  3.83036 
