60

Cr  0.0  0.0  0.0 
O  0.40413  2.24151  0.0 
N  0.27001  -2.22081  0.0 
N  1.72586  -0.0207  0.0 
N  2.437  1.1566  0.32875 
H  3.39757  1.10036  -0.09958 
C  -0.64675  -3.33447  0.03978 
H  -1.73915  -3.16547  0.00735 
C  0.03403  -4.68775  0.16058 
H  -0.56893  -5.58157  0.20555 
C  1.37692  -4.80052  0.21933 
H  1.86048  -5.76552  0.31109 
C  2.23386  -3.61566  0.17697 
H  3.31794  -3.70429  0.24277 
C  1.67343  -2.41863  0.08138 
C  2.46614  -1.22228  0.08317 
H  3.54952  -1.22325  0.11596 
C  1.75684  2.25784  -0.34101 
C  2.4071  3.6145  -0.06086 
H  3.50106  3.52305  -0.225 
H  2.23487  4.01924  0.96475 
H  2.00056  4.33051  -0.80338 
N  -1.92956  0.0  -0.07044 
C  -2.81314  0.14723  1.0346 
H  -2.3984  -0.00959  1.98447 
C  -4.27343  0.06136  0.74087 
H  -4.94949  0.04374  1.58392 
C  -4.71982  0.03536  -0.53554 
N  -6.11337  0.01079  -0.83345 
O  -6.91518  0.03764  0.05022 
O  -6.49456  0.04313  -1.96408 
C  -3.73991  0.0192  -1.63494 
H  -4.10726  0.03654  -2.65338 
C  -2.43271  -0.02186  -1.38325 
C  -1.4103  -0.02632  -2.43009 
N  -0.07044  0.0  -1.92956 
C  1.02079  0.00216  -2.843 
H  2.04389  -0.01296  -2.47491 
C  0.79014  0.01752  -4.1666 
H  1.63729  0.01667  -4.83813 
C  -0.60484  0.04635  -4.72254 
N  -0.82265  0.08946  -6.13392 
O  0.10531  0.08613  -6.88289 
O  -1.93213  0.12558  -6.58059 
C  -1.64691  0.02716  -3.88903 
H  -2.66186  0.05001  -4.25272 
Si  0.0112  -0.00297  3.45158 
O  0.0  0.0  1.85 
C  1.34543  -1.15702  4.03681 
H  1.14217  -2.17311  3.64029 
H  1.3498  -1.18254  5.14584 
H  2.32115  -0.79188  3.66245 
C  0.31069  1.71802  4.0912 
H  1.2736  2.08705  3.68886 
H  0.34565  1.69433  5.20006 
H  -0.52083  2.37397  3.75851 
C  -1.61611  -0.58444  4.20173 
H  -2.44534  0.11256  3.96797 
H  -1.56824  -0.57008  5.30184 
H  -1.83674  -1.60799  3.82444 
54

Cr  0.0  0.0  0.0 
O  0.12134  -1.93702  0.0 
O  0.30955  1.91109  0.0 
N  1.96911  0.02593  0.0 
N  2.45443  1.30306  0.07635 
N  2.74598  6.33465  0.51226 
H  3.03637  7.31587  0.60062 
C  1.00254  4.5645  0.43046 
H  -0.04628  4.27806  0.48332 
C  1.34023  6.00701  0.59635 
H  0.58578  6.80262  0.76044 
C  3.73836  5.33014  0.31925 
H  4.78563  5.60384  0.27233 
C  3.39372  4.04548  0.19352 
H  4.16213  3.29238  0.04784 
C  1.97072  3.65008  0.24008 
C  1.59528  2.24693  0.0934 
C  2.93684  -1.0112  0.0757 
H  4.00926  -0.70976  0.07148 
C  2.50768  -2.39664  -0.07735 
C  3.53967  -3.33457  -0.1873 
H  4.57766  -3.01369  -0.16319 
C  3.2518  -4.68144  -0.33173 
H  4.0634  -5.39097  -0.41862 
C  1.92196  -5.10194  -0.35998 
H  1.70077  -6.15306  -0.47235 
C  0.88439  -4.167  -0.24583 
H  -0.14221  -4.50794  -0.26969 
C  1.1636  -2.79974  -0.10536 
O  -4.90669  0.02906  -0.11269 
N  -2.37493  -0.16451  -1.36049 
N  -1.94035  0.0  -0.05965 
C  -0.05965  0.0  -1.94035 
C  0.94031  -0.05695  -2.92909 
C  0.58074  -0.21501  -4.30236 
C  -0.78741  -0.28892  -4.65524 
C  -1.76343  -0.2378  -3.68197 
C  -1.39488  -0.1186  -2.34989 
C  -2.81963  -0.45245  1.04424 
C  -4.32364  -0.17948  0.93802 
C  -5.13552  -0.23956  2.18855 
N  1.56278  -0.32199  -5.32351 
O  1.24489  -0.49364  -6.46869 
O  2.72019  -0.2973  -5.04904 
H  -3.35616  -0.25388  -1.63347 
H  1.98288  -0.03373  -2.64156 
H  -1.10245  -0.41443  -5.68176 
H  -2.8084  -0.32737  -3.9554 
H  -2.48872  0.08351  1.96365 
H  -6.21771  -0.08646  1.97755 
H  -4.79032  0.55708  2.88045 
H  -4.98824  -1.23494  2.6502 
S  0.0  0.0  3.4686 
N  0.0  0.0  1.93 
122

Cr  0.0  0.0  0.0 
O  0.40413  2.24151  0.0 
N  0.27001  -2.22081  0.0 
N  1.72586  -0.0207  0.0 
N  2.40885  1.13108  0.45558 
H  3.37418  1.10402  0.04365 
C  -0.6653  -3.32285  0.02606 
H  -1.75524  -3.13229  0.01005 
C  -0.0144  -4.69206  0.14436 
H  -0.62967  -5.58421  0.19105 
C  1.31982  -4.81885  0.21237 
H  1.78435  -5.80734  0.29522 
C  2.20788  -3.65097  0.17388 
H  3.28383  -3.77375  0.24511 
C  1.66907  -2.43726  0.08805 
C  2.45978  -1.23631  0.11234 
H  3.54142  -1.2522  0.15156 
C  1.77456  2.26405  -0.19816 
C  2.40885  3.62522  0.07094 
H  3.49908  3.57414  -0.1389 
H  2.23821  3.98032  1.10494 
H  1.96757  4.35622  -0.64263 
N  -1.93376  0.0  -0.06624 
N  -0.06624  0.0  -1.93376 
N  -1.51651  -0.18181  -3.72435 
S  -2.53906  -1.39139  -4.50203 
O  -1.66024  -2.27828  -5.39327 
O  -3.02104  -2.34136  -3.3871 
C  -2.81444  0.38195  1.03012 
H  -2.58179  0.0841  2.06481 
C  -4.24415  0.62625  0.65546 
H  -4.97649  0.78967  1.44163 
C  -4.60773  0.67417  -0.63114 
H  -5.63907  0.89851  -0.88381 
C  -3.63917  0.34996  -1.70555 
H  -3.98372  0.38445  -2.72745 
C  -2.38713  -0.0445  -1.39273 
C  -1.33501  -0.51433  -2.3375 
C  -0.16758  -0.00054  -4.29044 
H  0.07395  -0.73379  -5.0842 
C  0.79476  -0.24023  -3.09374 
H  1.0463  -1.32677  -3.09149 
C  2.06462  0.59432  -3.14148 
C  2.02543  1.98279  -2.93363 
H  1.08599  2.47397  -2.71301 
C  3.19595  2.74485  -2.94748 
H  3.15376  3.80615  -2.73997 
C  4.41984  2.13589  -3.21104 
H  5.32387  2.73083  -3.21907 
C  4.47209  0.76448  -3.46799 
H  5.42115  0.29913  -3.69676 
C  3.30343  -0.00718  -3.42461 
H  3.36342  -1.06796  -3.62695 
C  -0.07741  1.37834  -4.94396 
C  -0.9313  2.44228  -4.57961 
H  -1.67179  2.32023  -3.80169 
C  -0.8235  3.68505  -5.21131 
H  -1.48124  4.49392  -4.92382 
C  0.12573  3.88342  -6.21534 
H  0.19991  4.84501  -6.70716 
C  0.9772  2.84183  -6.58739 
H  1.71089  2.99851  -7.36895 
C  0.87932  1.59709  -5.95545 
H  1.54972  0.80228  -6.26163 
C  -3.83839  -0.5338  -5.30619 
C  -5.16579  -0.77297  -4.9655 
H  -5.41463  -1.49839  -4.19748 
C  -6.17671  -0.06427  -5.61068 
H  -7.20072  -0.24241  -5.33234 
C  -5.84209  0.91093  -6.56919 
C  -4.49899  1.16537  -6.87799 
H  -4.2211  1.91374  -7.60881 
C  -3.49714  0.43921  -6.24343 
H  -2.45965  0.63542  -6.47629 
C  -6.93613  1.65047  -7.27583 
H  -7.51811  0.91955  -7.86754 
H  -6.50915  2.41703  -7.96134 
H  -7.58379  2.14798  -6.53177 
S  0.0  0.0  2.25 
Si  -0.06955  0.28389  4.37038 
O  -1.23637  1.25371  4.86897 
C  -1.65479  1.91751  5.87753 
O  -0.314  -1.16502  5.00682 
C  -0.92458  -2.27961  4.94239 
O  1.33192  0.84466  4.9084 
C  2.51278  0.56138  5.29281 
C  -3.16917  2.14947  5.75907 
C  -1.37245  1.12709  7.1775 
C  -0.92913  3.26994  5.92026 
C  -0.96884  -2.92072  6.33981 
C  -2.36655  -2.04692  4.45931 
C  -0.18485  -3.21832  3.97177 
C  2.46211  -0.34977  6.53518 
C  3.26677  1.85455  5.66426 
C  3.24211  -0.14814  4.14271 
H  -3.53822  2.70222  6.65171 
H  -3.71317  1.1822  5.696 
H  -3.40975  2.74752  4.85411 
H  -1.69713  1.68243  8.06427 
H  -0.27925  0.92603  7.26451 
H  -1.89276  0.1434  7.13696 
H  -1.23517  3.84633  6.81847 
H  -1.16529  3.86931  5.01399 
H  0.17211  3.12029  5.95852 
H  -1.52549  -3.88503  6.30398 
H  -1.47609  -2.25454  7.0703 
H  0.0591  -3.12682  6.70922 
H  -2.92863  -3.00485  4.39864 
H  -2.3543  -1.59847  3.44772 
H  -2.90582  -1.35644  5.14468 
H  -0.72218  -4.19222  3.89334 
H  0.84532  -3.42051  4.33971 
H  -0.11826  -2.77921  2.9631 
H  3.48737  -0.62924  6.8561 
H  1.90287  -1.28224  6.31934 
H  1.96527  0.1691  7.3838 
H  4.30579  1.61748  5.98463 
H  2.76101  2.38124  6.50412 
H  3.31836  2.54852  4.79824 
H  4.27114  -0.42833  4.44507 
H  3.29547  0.52428  3.25798 
H  2.6898  -1.06639  3.85251 
74

Cr  0.0  0.0  0.0 
O  0.36667  1.96844  0.0 
N  2.01806  0.0293  0.0 
N  0.01527  -1.99774  0.0 
C  1.71054  2.25533  -0.22951 
C  3.03054  -0.99526  -0.1977 
H  4.10524  -0.70705  -0.11827 
C  3.06375  4.00187  1.06712 
H  3.63354  3.21331  1.5345 
N  2.54431  1.26596  0.41007 
H  3.50078  1.40216  0.00415 
C  1.19097  -2.876  -0.042 
C  2.03376  3.67783  0.1647 
C  1.59155  6.0462  -0.14528 
H  1.01891  6.83427  -0.61472 
C  1.29317  4.71156  -0.423 
H  0.48554  4.48089  -1.1073 
O  4.35547  5.70219  2.21731 
C  2.62186  -2.40891  -0.10058 
C  3.36908  5.35003  1.35056 
C  2.12881  -5.27594  0.05743 
H  1.9828  -6.35026  0.11643 
C  0.96669  -4.37607  0.03821 
C  2.63547  6.36221  0.72912 
H  2.86365  7.40342  0.92542 
C  3.61625  -3.32327  -0.08215 
H  4.6515  -2.99911  -0.13065 
C  -0.25517  -4.88892  0.13728 
H  -0.4296  -5.9621  0.20012 
C  -1.40666  -4.00985  0.21117 
H  -2.40162  -4.43506  0.32955 
C  -1.26116  -2.68742  0.17758 
H  -2.20677  -2.19532  0.30912 
C  5.14793  4.8154  2.91862 
H  4.50839  4.15158  3.53947 
H  5.82491  5.3782  3.5904 
H  5.75699  4.20714  2.21548 
C  3.35944  -4.77699  -0.00691 
H  4.20506  -5.45724  0.00307 
S  0.54257  0.0  -1.91044 
S  -1.90257  0.0  -0.56956 
N  -1.8016  0.34491  -3.28092 
C  -1.19582  -0.43652  -2.18888 
C  -1.09351  0.13124  -4.55669 
H  -0.16149  0.73814  -4.56074 
H  -1.69879  0.47684  -5.42101 
H  -0.8191  -0.9375  -4.70365 
C  -3.26762  0.12765  -3.38872 
H  -3.68569  0.93884  -4.02207 
H  -3.74359  0.27658  -2.40199 
C  -3.74583  -1.22505  -3.90506 
C  -4.67915  -1.2486  -4.95829 
H  -5.01464  -0.32765  -5.41669 
C  -5.22398  -2.45522  -5.40426 
H  -5.95938  -2.45286  -6.19839 
C  -4.83637  -3.65953  -4.81696 
H  -5.26731  -4.59102  -5.16182 
C  -3.9026  -3.65804  -3.77995 
H  -3.60733  -4.59548  -3.32378 
C  -3.3647  -2.44995  -3.3167 
H  -2.66647  -2.48871  -2.49734 
O  0.0  0.0  1.85 
C  -0.50938  0.55969  4.09619 
H  0.04259  1.52462  4.15735 
H  -1.27288  0.51448  4.90235 
C  -1.06653  0.39912  2.69335 
H  -1.82993  -0.4093  2.67412 
H  -1.52586  1.35226  2.35402 
C  0.4768  -0.55755  4.10851 
H  -0.06876  -1.52494  4.16497 
H  1.23828  -0.50687  4.91796 
C  1.05071  -0.40056  2.72002 
H  1.81484  0.40614  2.72799 
H  1.52074  -1.35312  2.39771 
64

Cr  0.0  0.0  0.0 
O  8.60637  0.12853  -0.07689 
N  5.84223  0.10077  0.13585 
N  0.27996  2.06957  0.0 
N  1.76754  0.01692  0.0 
N  1.57203  2.27616  -0.20666 
N  3.7876  1.21314  -0.15435 
C  7.86811  1.28162  -0.45152 
H  7.68284  1.28957  -1.55014 
H  8.45827  2.18984  -0.20925 
C  4.44383  0.09845  -0.14539 
C  6.5598  1.34844  0.33266 
H  6.77965  1.44512  1.41292 
H  5.97748  2.23855  0.00304 
C  0.67483  4.26443  -0.23852 
H  0.53864  5.33194  -0.35224 
C  2.39822  1.16337  -0.52119 
C  -0.29641  3.29256  -0.02884 
H  -1.35977  3.47043  0.04741 
C  1.85862  3.57726  -0.3404 
H  2.83997  3.98385  -0.55404 
N  0.3525  -2.08649  0.0 
N  1.66268  -2.27408  -0.14548 
N  3.74868  -1.1597  -0.24255 
C  7.8905  -1.03804  -0.45651 
H  7.71537  -1.04972  -1.5565 
H  8.49808  -1.93435  -0.21085 
C  6.57648  -1.12795  0.32001 
H  6.79552  -1.23459  1.3981 
H  6.00567  -2.02468  -0.01589 
C  0.81507  -4.26622  -0.30064 
H  0.72003  -5.33839  -0.41923 
C  2.46127  -1.16314  -0.12335 
C  -0.19007  -3.32378  -0.09183 
H  -1.24493  -3.5374  -0.01398 
C  1.9824  -3.55091  -0.33348 
H  2.99059  -3.92335  -0.47632 
C  -2.86303  0.0157  0.97254 
H  -2.56049  -0.00634  2.00814 
C  -4.1708  0.10846  0.68056 
H  -4.90503  0.15175  1.47837 
C  -4.61237  0.16075  -0.74006 
H  -5.66975  0.23259  -0.9661 
C  -2.36588  0.05472  -1.42541 
C  -1.42907  0.02665  -2.36433 
C  -0.75944  -0.04696  -4.61901 
H  -0.99318  -0.07992  -5.67682 
C  0.96276  -0.05329  -2.87895 
H  2.00322  -0.09454  -2.59763 
C  0.66113  -0.08277  -4.18564 
H  1.45477  -0.13707  -4.92358 
N  -1.9117  0.0  -0.0883 
N  -3.75641  0.12352  -1.70629 
N  -0.0883  0.0  -1.9117 
N  -1.71662  0.01449  -3.75548 
O  -0.5204  -1.61635  3.6291 
C  0.0  0.0  1.97 
H  0.53074  -0.90823  1.77611 
H  0.86297  0.68778  2.09662 
C  -0.36052  -0.42581  3.37883 
C  -0.13092  0.49096  4.52695 
H  -0.89083  0.26768  5.30281 
H  0.88456  0.30795  4.94411 
H  -0.22226  1.54585  4.20235 
89

Cr  0.0  0.0  0.0 
N  0.36762  1.98881  0.0 
N  -0.61944  2.94733  -0.07756 
H  -1.07971  3.23821  0.79872 
C  -1.00105  3.44827  -1.27174 
O  -0.42309  3.08858  -2.29013 
C  -2.11862  4.41089  -1.37012 
N  -2.65551  4.85963  -0.28901 
O  -3.66656  5.70132  -0.30823 
H  -4.07962  5.96998  0.52337 
C  -2.63585  4.84012  -2.7229 
H  -3.72951  4.65917  -2.77663 
H  -2.16085  4.26932  -3.54942 
H  -2.42641  5.91914  -2.87383 
C  1.75126  2.28864  -0.09079 
N  2.23157  3.62332  -0.19472 
H  1.57378  4.41813  -0.20559 
H  3.23582  3.83092  -0.26852 
C  2.53682  1.20581  -0.08505 
N  1.84948  -0.02363  0.0 
C  2.5099  -1.24968  -0.07322 
C  3.84741  -1.30382  -0.19343 
H  4.36322  -2.25532  -0.26303 
C  4.62849  -0.033  -0.24596 
H  5.70821  -0.0865  -0.34789 
C  4.01585  1.17028  -0.18628 
H  4.61419  2.07237  -0.24146 
C  1.57768  -2.37974  -0.02691 
N  0.1829  -1.96518  0.0 
C  -0.81833  -2.99983  -0.05076 
H  -1.87401  -2.81181  -0.04314 
C  -0.4718  -4.29974  -0.13527 
H  -1.24519  -5.05992  -0.1836 
C  0.9426  -4.72925  -0.18157 
H  1.183  -5.78427  -0.26343 
C  1.92597  -3.83042  -0.13499 
H  2.96172  -4.14944  -0.17949 
S  -3.02297  0.57813  -1.30604 
N  -1.99332  0.0  -0.00668 
H  -2.39372  -0.91067  0.25954 
H  -2.24828  0.69733  0.72724 
N  -0.00668  0.0  -1.99332 
H  0.7729  0.60568  -2.337 
H  0.36102  -0.96113  -2.174 
C  -2.33771  -0.57435  -2.49792 
H  -2.14766  -1.60412  -2.12093 
H  -3.0659  -0.67049  -3.33038 
C  -1.09631  0.10301  -2.97379 
H  -1.33534  1.15136  -3.23494 
H  -0.76663  -0.3686  -3.92704 
Se  0.0  0.0  2.38 
C  0.04138  0.03164  4.31166 
C  -0.14783  -1.17259  5.04573 
C  -0.15073  -1.12147  6.46594 
C  0.07649  0.09021  7.13145 
C  0.28571  1.24487  6.39034 
C  0.24097  1.25494  4.99652 
C  -0.36433  -2.51781  4.34116 
C  -1.79606  -2.99886  4.56095 
C  0.65109  -3.57503  4.79091 
C  0.08621  0.24291  8.64154 
C  -1.32108  0.07781  9.2033 
C  1.09853  -0.68201  9.30956 
C  0.40526  2.60393  4.29859 
C  1.81785  3.14741  4.50697 
C  -0.62417  3.61986  4.81818 
H  -0.30866  -2.02271  7.04101 
H  0.46052  2.16802  6.91532 
H  -0.23735  -2.42633  3.24708 
H  -2.50428  -2.22825  4.18539 
H  -1.99234  -3.17996  5.63737 
H  -1.97072  -3.93737  3.99318 
H  1.68615  -3.21841  4.60342 
H  0.49405  -4.51458  4.2179 
H  0.53754  -3.80773  5.86947 
H  0.3944  1.2821  8.88902 
H  -2.01596  0.76441  8.66828 
H  -1.32401  0.36225  10.2769 
H  -1.68705  -0.96321  9.09174 
H  2.09872  -0.54459  8.84621 
H  0.792  -1.74421  9.21285 
H  1.16998  -0.42139  10.38711 
H  0.24807  2.50517  3.20719 
H  2.56542  2.43577  4.1016 
H  2.02289  3.31669  5.58546 
H  1.9212  4.11794  3.97428 
H  -1.65973  3.24019  4.69138 
H  -0.51928  4.58152  4.28001 
H  -0.47104  3.84524  5.89905 
95

Cr  0.0  0.0  0.0 
N  -0.31524  -3.48285  -0.00658 
C  0.28364  -2.15991  0.0 
N  1.66509  -2.38334  0.04188 
C  1.95327  -3.75524  0.02796 
H  2.94123  -4.19473  0.03073 
C  0.74628  -4.4259  0.00046 
H  0.62628  -5.50032  -0.02696 
C  1.75776  -0.02034  0.0 
C  2.46031  -1.24163  0.0977 
C  3.85521  -1.27664  0.20344 
H  4.38438  -2.22105  0.20642 
C  4.56867  -0.07583  0.29231 
H  5.65042  -0.10212  0.33203 
C  -1.72419  -3.81916  -0.00259 
H  -2.25319  -3.1124  0.67258 
H  -1.87202  -4.85659  0.36007 
C  -2.27959  -3.73365  -1.4141 
H  -1.76358  -4.43697  -2.10521 
H  -2.06862  -2.74844  -1.71559 
C  -3.79407  -3.8642  -1.498 
H  -4.09494  -4.89424  -1.22321 
H  -4.25361  -3.13929  -0.79236 
C  -4.29165  -3.52208  -2.90679 
H  -5.39847  -3.58676  -2.9324 
H  -3.86429  -4.21542  -3.66058 
H  -4.00337  -2.4866  -3.18875 
N  -0.18031  3.54133  -0.06977 
C  0.3586  2.18025  0.0 
N  1.75811  2.31999  -0.33263 
C  2.06914  3.66538  0.02288 
H  3.06499  4.08423  0.10227 
C  0.91821  4.40956  0.03708 
H  0.85507  5.48667  0.12384 
C  2.49506  1.18361  0.08981 
C  3.89764  1.15661  0.25558 
H  4.47705  2.06988  0.24699 
C  -1.53603  4.03381  -0.1924 
H  -1.65603  4.96904  0.39735 
H  -2.2877  3.36721  0.17952 
C  -1.91459  4.1912  -1.63941 
H  -1.27194  4.97039  -2.09945 
H  -1.76019  3.22084  -2.16682 
C  -3.39474  4.56778  -1.70452 
H  -3.57461  5.48502  -1.10212 
H  -4.01802  3.74347  -1.28163 
C  -3.80229  4.81404  -3.13535 
H  -4.87078  5.10598  -3.15862 
H  -3.65084  3.88883  -3.73068 
H  -3.18004  5.63546  -3.54778 
N  0.57694  0.0  -1.92929 
N  -1.93694  0.0  -0.55071 
C  -3.7786  0.41587  -2.20987 
H  -4.58434  -0.31954  -2.40915 
H  -3.6269  1.01521  -3.1337 
H  -4.16124  1.08889  -1.41651 
C  -1.55883  -0.6475  -2.93513 
H  -2.13622  -0.67627  -3.8876 
H  -0.99671  -1.59697  -2.9114 
C  1.94985  2.22305  -1.82841 
H  1.19822  2.85843  -2.34987 
C  1.75968  0.77727  -2.4194 
C  3.33445  2.74987  -2.24995 
H  3.53634  3.81112  -2.1484 
C  4.35666  1.95135  -2.59804 
H  5.33648  2.38992  -2.74974 
C  2.99755  -0.07974  -2.60256 
H  2.91077  -1.16343  -2.63399 
C  -0.46714  0.38456  -2.9374 
C  -2.55089  -0.4268  -1.79106 
C  4.20441  0.48585  -2.6866 
H  5.08803  -0.13832  -2.78748 
C  0.0143  0.5086  -4.44069 
H  0.99088  1.00406  -4.62783 
H  -0.70767  1.17063  -4.95592 
H  0.0604  -0.47105  -4.9673 
C  -3.95417  -0.18176  1.02569 
H  -4.36755  -1.02421  0.49856 
C  -2.73873  0.39484  0.60894 
C  -2.28245  1.43498  1.41672 
H  -1.40341  1.9003  1.25678 
C  -2.91966  1.98251  2.49055 
H  -2.46108  2.83702  2.99072 
C  -4.09896  1.4251  2.89647 
H  -4.57442  1.85803  3.76362 
C  -4.61018  0.32338  2.18822 
H  -5.51647  -0.12381  2.55371 
S  0.0  0.0  2.25 
C  0.0662  0.00099  4.03295 
N  0.21913  1.20908  4.73648 
H  0.21113  1.2026  5.77362 
H  0.32672  2.10092  4.24559 
N  -0.06884  -1.12571  4.62391 
H  -0.05984  -1.15971  5.66941 
H  -0.19919  -1.99477  4.10748 
100

Cr  0.0  0.0  0.0 
O  1.83263  -3.61822  0.20409 
N  1.85531  -0.01842  0.0 
N  0.23753  -1.98539  0.0 
C  -1.7135  -3.37255  -0.68871 
H  -2.33546  -2.47798  -0.56521 
C  -2.55661  -4.57893  -0.25595 
H  -3.46673  -4.65854  -0.88829 
H  -2.88922  -4.44773  0.7972 
H  -1.97844  -5.52362  -0.3332 
C  -1.35647  -3.45209  -2.18258 
H  -2.28715  -3.48812  -2.78914 
H  -0.76482  -4.3536  -2.43102 
H  -0.78433  -2.55479  -2.48984 
C  -0.4969  -3.18579  0.24541 
H  -0.84091  -3.12266  1.30452 
C  0.62358  -4.2874  0.14366 
H  0.50006  -5.04633  0.94464 
H  0.61854  -4.80897  -0.83355 
C  1.5954  -2.29847  0.10735 
C  2.46312  -1.29446  0.10824 
C  3.94796  -1.34009  0.14158 
H  4.47006  -2.28558  0.1093 
C  4.61733  -0.15822  0.14496 
H  5.70017  -0.16604  0.11366 
O  1.96745  3.55661  -0.35032 
N  0.30716  2.00381  0.0 
C  -1.60036  3.5069  0.5999 
H  -2.25437  2.60807  0.52551 
C  -2.42022  4.71961  0.16795 
H  -3.3112  4.82285  0.82852 
H  -2.77129  4.58988  -0.87406 
H  -1.81219  5.64546  0.24931 
C  -1.20258  3.70197  2.06599 
H  -2.10636  3.71782  2.70573 
H  -0.65836  4.63448  2.28875 
H  -0.51019  2.90586  2.32958 
C  -0.37258  3.24458  -0.32265 
H  -0.6814  3.1635  -1.38416 
C  0.76758  4.28305  -0.19531 
H  0.65976  5.10395  -0.93051 
H  0.83017  4.76338  0.80456 
C  1.66447  2.38811  0.36807 
C  2.5535  1.19001  0.18621 
C  3.89964  1.16354  0.22666 
H  4.46532  2.08258  0.3352 
C  -1.77292  0.13869  -2.96004 
C  2.44719  1.40893  -3.00128 
C  -4.79049  0.15515  -0.63798 
C  -5.11055  -1.25801  -0.17424 
C  -2.51591  0.08752  -1.77256 
C  -3.9249  0.14631  -1.86741 
C  -4.54327  0.23042  -3.13423 
C  -3.78796  0.24625  -4.28954 
C  -2.41579  0.20069  -4.21724 
C  -0.31811  0.1745  -3.05961 
C  2.00373  0.01546  -2.54752 
C  2.30897  -1.13033  -3.52916 
H  3.55392  1.43081  -3.13877 
H  1.93104  1.74774  -3.91172 
H  2.22627  2.13569  -2.21 
H  -4.30806  0.7461  0.17032 
H  -5.75147  0.65813  -0.87495 
H  -5.79377  -1.21341  0.69652 
H  -5.60248  -1.82329  -0.99587 
H  -4.20034  -1.78899  0.14436 
H  -5.62013  0.28224  -3.21785 
H  -4.25103  0.29865  -5.26725 
H  -1.83917  0.22279  -5.12927 
H  0.11353  0.17618  -4.08463 
H  2.81624  -0.22272  -1.89587 
H  3.41251  -1.19903  -3.69785 
H  1.99436  -2.09218  -3.06631 
H  1.84204  -1.00756  -4.51897 
N  0.58046  0.0  -1.93122 
O  -1.94046  0.0  -0.54878 
P  0.0  0.0  2.33 
C  1.04659  -1.0334  3.36776 
C  2.41859  -0.773  3.4824 
C  3.18838  -1.48027  4.41426 
C  2.59165  -2.44153  5.23685 
C  1.22533  -2.69914  5.12946 
C  0.4553  -1.99776  4.20664 
H  2.88471  -0.00049  2.88608 
H  4.24342  -1.26696  4.51776 
H  3.1825  -2.97388  5.97146 
H  0.75379  -3.42348  5.78249 
H  -0.60985  -2.18609  4.17767 
C  -1.00513  0.93117  3.49463 
C  -2.39049  1.07929  3.32725 
C  -3.11996  1.8691  4.22732 
C  -2.4722  2.50097  5.29636 
C  -1.09848  2.33376  5.47954 
C  -0.36707  1.55196  4.58401 
H  -2.89459  0.61671  2.48892 
H  -4.18163  2.01452  4.08257 
H  -3.03134  3.1274  5.97912 
H  -0.59473  2.82157  6.30491 
H  0.70097  1.44524  4.73087 
H  -0.98366  -0.99912  2.40647 
70

Cr  0.0  0.0  0.0 
N  0.21195  1.93025  0.0 
N  2.75827  0.88424  -0.75103 
N  2.79935  -0.90491  0.64842 
C  1.95457  0.01115  0.0 
N  0.23348  -1.9414  0.0 
C  1.04103  4.11036  -0.89767 
H  1.71167  4.63422  -1.54717 
C  1.21067  2.65532  -0.75669 
C  4.09187  0.51909  -0.53803 
H  4.93492  1.0045  -0.98427 
C  2.22515  1.92916  -1.56144 
H  1.72278  1.54753  -2.44229 
H  3.02107  2.60174  -1.88866 
C  -0.70843  -2.65736  -0.79732 
H  -1.54882  -2.17181  -1.17579 
C  2.29517  -1.95862  1.46516 
H  1.82588  -1.52664  2.35361 
H  3.10151  -2.62054  1.7999 
C  0.1135  4.74169  -0.18545 
H  0.01631  5.80717  -0.23968 
C  4.11729  -0.58086  0.29869 
H  4.98867  -1.10448  0.63078 
C  -0.63971  -4.10291  -0.85786 
H  -1.38095  -4.58835  -1.46621 
C  1.25307  -2.67742  0.68773 
C  -0.6419  2.68791  0.83263 
H  -1.21501  2.1994  1.55865 
C  0.28738  -4.7494  -0.18045 
H  0.30638  -5.81877  -0.22257 
C  1.28135  -4.01683  0.61051 
H  2.03129  -4.59048  1.12398 
C  -0.74307  4.00523  0.73704 
H  -1.44727  4.53225  1.36019 
C  -2.88921  0.41918  0.91207 
O  -1.94323  0.0  -0.05677 
C  -2.26751  0.60836  -1.29608 
C  -1.40474  0.00815  -2.3935 
O  -0.05677  0.0  -1.94323 
C  0.79081  -0.71634  -2.84175 
C  0.78644  -0.20816  -4.28362 
O  -0.24748  -0.86006  -4.99037 
C  -0.11202  -0.57388  -6.36091 
H  -2.95694  1.51078  1.03403 
H  -2.61555  -0.047  1.87998 
H  -3.92124  0.17162  0.6424 
H  -2.04879  1.69182  -1.25488 
H  -3.33391  0.47383  -1.57181 
H  -1.54914  0.55539  -3.33412 
H  -1.78171  -0.9838  -2.66174 
H  1.81943  -0.5795  -2.47834 
H  0.65184  -1.80646  -2.79869 
H  0.66387  0.89556  -4.29208 
H  1.78208  -0.44682  -4.72348 
H  -0.27799  0.50755  -6.55258 
H  0.8641  -0.92361  -6.7537 
H  -0.8665  -1.14696  -6.93224 
C  0.0  0.0  1.97 
C  -0.06571  -0.02475  3.17689 
C  -0.04256  -0.0091  4.61793 
C  1.11095  0.42023  5.28836 
C  1.14721  0.4376  6.68296 
C  0.03353  0.03064  7.41928 
C  -1.11031  -0.41266  6.75639 
C  -1.15029  -0.42819  5.36132 
H  1.98855  0.73495  4.74463 
H  2.04415  0.76272  7.18656 
H  0.05581  0.0514  8.49938 
H  -1.9673  -0.74985  7.31912 
H  -2.04321  -0.77225  4.86978 
92

Cr  0.0  0.0  0.0 
O  0.30332  -2.08699  0.0 
N  0.29072  2.07743  0.0 
N  4.8524  0.18271  -0.38151 
N  1.80596  0.00956  0.0 
N  2.34155  -1.25622  -0.15869 
H  3.33612  -1.41803  -0.26293 
C  -0.60818  3.08813  0.18791 
H  -1.67708  2.86795  0.15387 
C  -0.16379  4.39615  0.38426 
H  -0.87462  5.20487  0.50066 
C  1.19605  4.69017  0.42897 
H  1.56547  5.68281  0.58024 
C  2.12189  3.64391  0.28097 
H  3.18542  3.84393  0.32967 
C  1.64895  2.35456  0.02846 
C  2.60487  1.20857  -0.07858 
C  6.09308  0.05255  -0.91088 
H  6.70361  -0.79198  -0.62917 
C  6.55841  0.99917  -1.81663 
H  7.54285  0.90786  -2.25196 
C  5.73883  2.07342  -2.1443 
H  6.07997  2.83669  -2.82907 
C  4.46347  2.16574  -1.59524 
H  3.88203  2.99634  -1.86937 
C  3.99401  1.18219  -0.72146 
C  1.50863  -2.30893  0.00278 
C  2.02842  -3.7081  0.12312 
C  1.14771  -4.79551  -0.01109 
H  0.08653  -4.63144  -0.15033 
C  1.64435  -6.09994  -0.04314 
H  0.96769  -6.93002  -0.19207 
C  3.01658  -6.34227  0.07446 
H  3.40465  -7.34929  0.02619 
C  3.89677  -5.27553  0.24857 
H  4.96337  -5.4498  0.33125 
C  3.41338  -3.9727  0.28042 
H  4.15038  -3.19271  0.39092 
C  1.51856  1.43516  -3.25521 
C  2.8784  -0.84889  -4.14843 
H  3.41512  -1.69735  -4.5443 
N  -1.93498  0.0  -0.06502 
C  1.06949  0.13536  -2.82795 
N  -0.06502  0.0  -1.93498 
C  -2.35934  0.11007  -1.42679 
C  -3.68913  -0.15033  3.31653 
H  -3.40849  -0.36978  4.34075 
C  1.22395  -2.42583  -3.13726 
H  0.76534  -2.81288  -4.0693 
H  0.41763  -2.43305  -2.38187 
C  3.37259  0.40732  -4.44145 
H  4.27493  0.5027  -5.02977 
C  -2.97262  0.00011  0.97251 
C  -4.94742  0.31585  3.00459 
H  -5.66191  0.45993  3.80402 
C  -1.40718  0.05351  -2.38733 
C  2.68327  1.53627  -4.03433 
H  3.07132  2.49473  -4.34216 
C  -4.30916  0.35114  0.64933 
C  -5.28489  0.50665  1.66337 
H  -6.30439  0.77692  1.42585 
C  -2.76452  -0.36081  2.31047 
H  -1.91991  -0.85555  2.64314 
C  1.73157  -1.01649  -3.35236 
C  -1.73525  0.03142  -3.86298 
H  -0.82777  0.1549  -4.48583 
H  -2.42171  0.86227  -4.1252 
C  0.7129  2.70145  -2.98661 
H  0.11205  2.55377  -2.12835 
H  -0.09569  2.78312  -3.73335 
C  -2.31201  -1.34535  -4.20239 
H  -2.56801  -1.39948  -5.27808 
H  -3.21463  -1.57852  -3.60165 
H  -1.55542  -2.12831  -3.97941 
C  -3.80419  0.3244  -1.73956 
H  -4.15855  0.40885  -2.75975 
C  -4.69888  0.4858  -0.7613 
H  -5.73913  0.67096  -1.01523 
C  1.44679  4.05119  -2.88 
H  0.74551  4.83137  -2.52274 
H  1.8936  4.36066  -3.84153 
H  2.23578  4.0665  -2.13932 
C  2.34592  -3.39882  -2.78352 
H  3.01875  -3.6134  -3.62807 
H  1.90897  -4.36764  -2.47306 
H  2.99758  -2.95082  -2.02049 
C  0.0  0.0  1.97 
C  0.06376  0.14115  3.50646 
O  1.49009  -0.00799  1.43104 
H  -0.88831  0.53923  3.91717 
H  0.23149  -0.86181  3.95588 
H  0.84816  0.8498  3.83036 
