77

Ru  0.0  0.0  0.0 
N  0.08736758440693204  2.130164831186491  -1.2733531746490122e-14 
N  2.510002734949575  2.3481983745531116  0.45094773679686007 
N  2.1475492284899644  0.02573346538162291  6.1759335808283295e-15 
N  2.6315941811409047  -2.30129212604913  -0.2931485641095647 
N  0.16508318710310366  -2.1558982965681133  6.554128718709839e-15 
C  -1.0293265263017843  2.8900527976209123  -0.24508498847671994 
C  -1.0907148174723706  4.237233620638364  0.0802767145572707 
H  -1.894581212875918  4.720696072503737  -0.07157836760078425 
C  0.006585557837865297  4.88703750755989  0.6256081045264241 
H  -0.04869367920699319  5.791783897239875  0.9106459727347941 
C  1.1539496209050097  4.190294010948987  0.7364552818132934 
H  1.9346096969411355  4.6267132802307085  1.0592951756970577 
C  1.2206352208506832  2.827631232935078  0.3824988661696434 
C  2.8973933254528896  1.1329495059465198  0.24453320789956684 
C  4.3275530599949175  0.7499888972589452  0.22899210471089065 
C  5.475005462325217  1.472808135489645  0.4982231638961474 
H  5.439674043039888  2.3847485388275222  0.7600896977855216 
C  6.68787489126972  0.7962556524988147  0.36706846100381835 
H  7.4984225940986295  1.255322146526433  0.5504829519797759 
C  6.7349080708323825  -0.5240505841170211  -0.02420558819131444 
H  7.579817554474307  -0.9439432283949616  -0.13690315574811932 
C  5.577596733944296  -1.2573968541940148  -0.25657972116327477 
H  5.615363727785709  -2.1709759776454582  -0.5115802101233492 
C  4.366116038174785  -0.6025332360176936  -0.10109140852584994 
C  2.9622083335628098  -1.04789969854895  -0.16377219492433703 
C  1.360374345505877  -2.8424448381186798  -0.18628167631066161 
C  1.4036930350402785  -4.246555767555134  -0.2668652911099606 
H  2.2326437049228023  -4.678739002815859  -0.43581823740237474 
C  0.2761714361900587  -4.9982525332291035  -0.10578532152486207 
H  0.3024605420262858  -5.944753801496905  -0.17365550703936714 
C  -0.9050292079290159  -4.332132246397749  0.15911928735237185 
H  -1.7015013800170509  -4.828765021379691  0.30260585781492244 
C  -0.9433658521479544  -2.9521566071477103  0.21983919172052935 
C  -2.2371442471185548  2.318250596143696  -0.9296761479776231 
H  -1.9678901972885512  1.9015536236530604  -1.7736872318901984 
H  -2.8806016332389293  3.035391510733682  -1.1100446620486084 
H  -2.652947012247517  1.644480038777313  -0.3518329629028973 
C  -2.286669735059264  -2.3611007912100197  0.5578724897869025 
H  -2.7203471857855828  -2.0461482309456445  -0.26255137841442944 
H  -2.1661364965422507  -1.6090433512709699  1.1747289199592097 
H  -2.846462774338179  -3.044949424808701  0.9820994213931975 
O  -1.76570496031435  -4.919675777870225e-15  -0.2342950396856498 
N  -0.23429503968565046  -1.1102230246251565e-16  -1.76570496031435 
C  -2.7224415613761783  -0.02057236657263249  -2.4482833106397424 
C  0.9175376342319443  -1.046026316069458  -3.6454128996990907 
C  -1.5215639944867019  0.02613938229571388  -1.5201662857666614 
C  -3.731636711212464  1.0320958215733484  -1.9703404843389702 
H  -3.9790897104352556  0.8480270867913495  -1.0405987653377138 
H  -4.532871876530797  0.9974358563028018  -2.535243198675502 
H  -3.328235768086471  1.9225450642297361  -2.031562337771521 
C  1.480054334782641  1.474240609597953  -4.681551691072425 
H  1.67007846912853  2.330963572577228  -5.046819323186364 
C  -3.3190940961194864  -1.4276115919356864  -2.2694412544165483 
H  -2.6519487134054778  -2.100028062455275  -2.5185702741982117 
H  -4.109356953379731  -1.5231268541027565  -2.8414749781846913 
H  -3.576207018599577  -1.556277394555749  -1.3327669319704403 
C  0.4596036708272695  0.1068664042209962  -3.012756507443582 
C  0.5886511048798818  -2.410422345561775  -3.0907970096306556 
H  1.064193774063751  -3.096266904319488  -3.6049465316648046 
H  -0.37610184032099736  -2.5651657829876187  -3.153796321530619 
H  0.8645482363645016  -2.456527009664843  -2.1512958905325905 
C  1.6530327777733484  -0.9089336575112918  -4.813757329564067 
H  1.9705886782084245  -1.6828728186546442  -5.262664519245392 
C  1.9282353761056272  0.3462737997658516  -5.332729408839124 
H  2.4247933197521787  0.42892748905606715  -6.1373571589498415 
C  0.7536225491722028  1.3807868408665427  -3.4983414333562592 
C  -2.4028224791917374  0.21378896088251684  -3.923239869490563 
H  -1.973929066696197  1.0884823633988785  -4.029004146599006 
H  -3.2322853003417196  0.1899296486840267  -4.444870937920494 
H  -1.7962464929688726  -0.48777297360469973  -4.240555619204176 
C  0.29012105758695783  2.631210506225457  -2.7832834186409086 
H  0.7316188581477504  3.4142473977237255  -3.1749436267968107 
H  0.5203416783194011  2.568410561831571  -1.83257498133023 
H  -0.6795202292522113  2.7220139755172705  -2.878523089059649 
O  0.0  0.0  1.88 
H  -0.6511917182125614  0.10287963460190092  2.323400729493708 
