57

Ru  0.0  0.0  0.0 
O  0.16459999757431043  -1.8060553597475884  1.0685896612017132e-15 
O  0.37020587165178925  1.8190330066987856  -3.011479954295737e-15 
N  1.8651941307739006  -0.01297764695119763  1.9567680809018384e-15 
C  2.6041905348682306  1.0756859880996568  -0.023419531453705775 
C  4.010947226091276  0.9705254952847028  0.05767055702883296 
H  4.549659638356761  1.7524088694487072  0.08728096190640601 
C  4.594448648287002  -0.28200124088063294  0.0937072811665496 
H  5.5405700552841575  -0.3587884225244111  0.13558665505067047 
C  3.7937851328100303  -1.4605115518572442  0.06760437125462028 
C  4.21593934238158  -2.81665675669088  0.08172055869166563 
H  5.141143038755114  -3.0332619853966096  0.08682693843540658 
C  3.2682855176609644  -3.813730582670101  0.08743055339798435 
H  3.567166248308217  -4.71517750576209  0.10561883797218354 
C  1.8665451290527562  -3.571135614235832  0.06802297150621324 
H  1.246616997572678  -4.29057475365147  0.07128739741371767 
C  1.4297381154034692  -2.262424347565329  0.04449100778701853 
C  2.4135343330911097  -1.2484724084153824  0.04171303054540433 
C  1.7067696609933893  2.3112863791541987  -0.19133986601619746 
C  1.776410008511222  2.868945468016423  -1.6167925003071266 
C  2.422127151702435  2.1993883724987753  -2.6467189378894185 
H  2.898224520206953  1.3979109733573276  -2.4612432134170925 
C  2.3784467378725083  2.6900468806137594  -3.9488138921312452 
H  2.830088803072858  2.229098171872704  -4.645638025504592 
C  1.6786219311829123  3.8487872440102655  -4.228340814229283 
H  1.6417421640991978  4.181969515627832  -5.117979120879583 
C  1.0324241042371312  4.523910717327219  -3.2053709836736597 
H  0.5568585757553677  5.323413403383324  -3.3949403195614445 
C  1.074037302317919  4.040033658163536  -1.9104703722904572 
H  0.622660939692961  4.507244788036132  -1.2172311355282606 
C  2.0350945807643326  3.3675541996384384  0.8655583118925736 
C  1.3015166601631147  3.4411729262988238  2.0419347556771714 
H  0.575541989012164  2.84626496677397  2.185861495865521 
C  1.6278806995864648  4.387397307518374  3.011594889000674 
H  1.1212334925825467  4.435733398706331  3.813677571723471 
C  2.6876494457113007  5.256984970487043  2.8111365114015263 
H  2.907499419585381  5.901986475994562  3.47289499973439 
C  3.4254692953965327  5.182266247044785  1.6414627569821063 
H  4.156471871757641  5.774236472156296  1.5047436437065722 
C  3.100071822586518  4.243696649770216  0.6654410175927072 
H  3.605479336261422  4.200181612985308  -0.1381780878885891 
N  -1.9511789828943868  -1.5890067039947553e-15  -0.04882101710561315 
N  -4.092938293737298  -0.20756214025603129  -0.910598019786836 
N  -2.3297501344489335  0.09260318016728505  -2.327095187225093 
N  -0.8797251231615786  0.41467707181029845  -4.067491810113992 
N  -0.048821017105613596  3.3306690738754696e-16  -1.9511789828943868 
C  -2.760883418360173  -0.038569540435132166  -1.036391104612163 
C  -1.0357419527906697  0.16075091012730758  -2.7672504697138955 
H  -2.3757962576627305  -0.20720820285917513  0.7908091280393843 
H  -4.628458959904986  -0.18794985215186252  -1.7171723463449557 
H  -4.308002630622658  -0.2504846089568163  -0.14158482569930353 
H  -2.8828996475772324  -0.00907183069242386  -2.888553714894427 
H  -1.4803190992329698  0.288964443556765  -4.603886302073376 
H  -0.015858284826854856  0.528791380978091  -4.456795265106029 
H  0.8326564876044529  0.11569790198578868  -2.2905836737373617 
O  0.0  0.0  1.88 
H  -0.6511917182125614  0.10287963460190092  2.323400729493708 
