69

Ru  0.0  0.0  0.0 
O  0.05022038169542031  -1.8745881039659333  -1.1879386363489173e-14 
O  0.30359616618577323  1.888956096894991  1.676436767183986e-14 
C  2.8082050650779227  -1.0502576851745467  -0.07425750388165246 
N  2.0461834521188065  -0.014367992929057494  -4.884981308350688e-15 
C  3.363308872354846  -3.491053789161057  -0.0645847632704337 
C  1.024116782184244  -2.7680950604451326  -0.06390516284457613 
C  0.6187866499392347  -4.123079263526446  -0.18858484560941943 
C  2.3786139213162727  -2.4262356172936035  -0.04754908717603034 
C  1.5371078844307635  -5.113697362910157  -0.24610433322324152 
C  2.9364798004140154  -4.836344424487063  -0.1806551292140268 
C  4.75543153734487  -3.2612836944047543  0.04194973431956072 
C  5.657548780653612  -4.29586379136095  0.015936808549026345 
C  3.8860292682831803  -5.87885603905405  -0.22755621195541817 
C  2.652358425651502  1.3420321575926173  -0.10807100965297244 
C  1.5908429885967634  2.2738613216582637  0.47303253180173527 
C  5.225407912733722  -5.615961317369532  -0.14773420934805445 
O  3.4046505532765527  2.9178301170374645  -1.7742486519597072 
C  2.8540993611863836  1.6228500026316932  -1.5985668140204727 
C  3.9603915156753127  1.5011751190433802  0.6650079211318717 
H  3.7217279392319336  -0.8972206131030683  -0.15116395984722145 
H  -0.28644873225330447  -4.329396196036741  -0.23234368684486204 
H  1.250634333700283  -5.994968564292411  -0.32880955885105884 
H  5.066700808790731  -2.3894916523691876  0.13260780675119285 
H  6.565270366098258  -4.117633916702992  0.10756292435268365 
H  3.598506877634321  -6.758615566776189  -0.31359532084017666 
H  1.610144479325057  2.2289971347791733  1.44254332967422 
H  1.7765261285442466  3.187709419406771  0.20911753453807488 
H  5.843084625793654  -6.308385198331753  -0.20210412029790367 
H  2.946303983696815  3.3390526926280746  -2.308765493572111 
H  3.450064877734529  0.9592494131359552  -1.9787300825070644 
H  2.0016124871987984  1.5650519383799446  -2.0600255483051613 
H  4.202332994593056  2.4289252560498054  0.6942223707014815 
H  4.654288468651039  1.0014393687935381  0.22686294675326446 
H  3.8437361414473203  1.1721685797401509  1.5594610449787498 
O  -1.983033562499267  1.2524703496552547e-15  -0.01696643750073301 
C  -2.8031263568876907  -0.0029788774590563064  -1.0354564153018315 
C  -4.190731893559916  0.08079202443918201  -0.8034689790218292 
C  -5.085481796217273  0.1109326054081852  -1.830257008302244 
C  -4.65845130164857  0.0681234594407853  -3.1577298041553137 
C  -3.3285972896207863  -0.017906408327009037  -3.421586637581184 
C  -2.3692990252080905  -0.024882610032150233  -2.385632882578296 
C  -0.9839434209379949  0.016006635643170748  -2.745600963532109 
O  -0.016966437500732567  -2.7755575615628914e-17  -1.9830335624992672 
H  -4.513372505605779  0.11559978821355836  0.09827878783968047 
H  -6.02299979265341  0.16406605590010223  -1.6407000174071924 
H  -5.294801459087625  0.09904764567986277  -3.8772559620069424 
H  -3.0355792094587812  -0.07923598852698205  -4.331559904930641 
H  -0.7890987394361275  0.06149555785286489  -3.681361850749913 
N  0.0  0.0  1.96 
N  -0.00605157828302727  -0.1392210237152327  9.057728393292884 
C  -1.1280336022664137  -0.10658296564893459  2.6689945793807848 
H  -1.9290854573036673  -0.20436232589852377  2.2052764729297274 
C  -1.1758230663320433  -0.08158015682221803  4.040408184634537 
H  -1.9921832001920228  -0.1571395955614402  4.480720758905964 
C  -0.0030285584847690172  0.05812864234474879  4.7710733499452935 
C  1.1671495979751085  0.2142961977283609  4.036470275632595 
H  1.977032665552287  0.3415607412854321  4.474161402804473 
C  1.1260728720503208  0.1806936994422785  2.663690794180373 
H  1.9239402854072218  0.2904016516906975  2.198859893834207 
C  -1.066320027988871  0.2666747955881221  8.368192615808908 
H  -1.8295956477665407  0.5009100067757635  8.845971031073658 
C  -1.1139414512441688  0.3662003613993733  6.997589251667012 
H  -1.8874260803032934  0.6639470916883611  6.57373867279341 
C  -0.0012294792339029303  0.01760778777724681  6.251778152955998 
C  1.1238300622920079  -0.39484720275704643  6.966637865630354 
H  1.9037823944692933  -0.6282700536492545  6.515873656522569 
C  1.0739692608664713  -0.4561390969568644  8.341792298480208 
H  1.83694101078601  -0.732278554710867  8.797939860893997 
