56
Ligand ID: unq_CSD-PALHIV-03-a  ===  Stoichiometry: C26H27O2  ===  Charge: -3  ===  Donors: O-O-C
Cu  0.0  0.0  0.0 
O  -1.2989  -1.475200000000001  -0.5620999999999996 
O  1.6525  0.823599999999999  0.8747000000000007 
C  -1.6739  -2.478999999999999  0.24400000000000066 
C  -3.0549  -2.834299999999999  0.3349000000000002 
C  -3.3881  -3.8927999999999994  1.1721000000000004 
H  -4.3008  -4.1501  1.2401 
C  -2.4429000000000003  -4.591999999999999  1.9149000000000003 
H  -2.712  -5.285499999999999  2.5058000000000007 
C  -1.1142999999999998  -4.2639  1.7829000000000006 
H  -0.46440000000000003  -4.7462  2.2811000000000003 
C  -0.7016  -3.2407000000000004  0.9368000000000007 
C  0.7448  -3.0246999999999993  0.6593 
C  1.597  -4.1366  0.7002000000000006 
H  1.2512  -4.9826999999999995  0.9624000000000006 
C  2.9301999999999997  -4.023999999999999  0.36540000000000017 
H  3.4945999999999997  -4.788699999999999  0.39640000000000075 
C  3.443  -2.801400000000001  -0.013999999999999346 
H  4.3614999999999995  -2.7286  -0.24599999999999955 
C  2.6229  -1.6611000000000011  -0.06299999999999972 
C  1.2474  -1.760200000000001  0.2749000000000006 
C  3.2546  -0.3673000000000002  -0.41769999999999996 
C  4.365  -0.3116999999999983  -1.2722999999999995 
H  4.6316  -1.0893999999999977  -1.7468999999999997 
C  5.072  0.8585999999999991  -1.4295999999999998 
H  5.7954  0.9045000000000023  -2.0437 
C  4.7169  1.9724000000000004  -0.6811999999999996 
H  5.2479  2.756499999999999  -0.7504999999999997 
C  3.6140999999999996  1.985400000000002  0.16660000000000075 
C  2.8186999999999998  0.8177000000000021  0.2102000000000004 
C  -4.1143  -2.093  -0.4833999999999996 
C  -3.8590999999999998  -2.336400000000001  -1.9864999999999995 
H  -2.9437  -2.0639000000000003  -2.2112 
H  -4.4952000000000005  -1.8108000000000004  -2.5143999999999997 
H  -3.9764  -3.289200000000001  -2.1878999999999995 
C  -4.0929  -0.5900999999999996  -0.18319999999999936 
H  -3.233  -0.21429999999999794  -0.4621999999999997 
H  -4.214700000000001  -0.44839999999999947  0.7780000000000005 
H  -4.8171  -0.1479999999999997  -0.6741999999999995 
C  -5.5322000000000005  -2.5959000000000003  -0.17749999999999932 
H  -5.5872  -3.5540999999999983  -0.3710999999999993 
H  -6.1770000000000005  -2.113599999999998  -0.7356999999999996 
H  -5.7366  -2.4399999999999977  0.7674000000000003 
C  3.2681  3.2013999999999996  1.0392000000000001 
C  1.9248  3.813100000000002  0.6251000000000007 
H  1.9822000000000002  4.130800000000001  -0.3010999999999999 
H  1.7128  4.565999999999999  1.2168 
H  1.2214  3.1350000000000016  0.6953000000000005 
C  4.3435999999999995  4.2864  0.9249 
H  4.3877  4.606200000000001  -9.999999999976694e-05 
H  5.2124999999999995  3.9132  1.1829 
H  4.1197  5.0319  1.5179 
C  3.214  2.774000000000001  2.5123000000000006 
H  4.0762  2.3874999999999993  2.7729 
H  2.5080999999999998  2.1061000000000014  2.633 
H  3.0235  3.556000000000001  3.0718000000000005 
25
Ligand ID: unq_CSD-PAKPEZ-01-d  ===  Stoichiometry: C11H11N2  ===  Charge: 1  ===  Donors: N
Cu  0.0  0.0  0.0 
N  -2.8941  -8.580400000000001  -0.24110000000000031 
N  -0.6658  -1.9238  0.016799999999999926 
C  -3.2831  -6.3279  0.2846000000000002 
H  -3.8606  -5.671  0.6013999999999999 
C  -3.7192999999999996  -7.622  0.1924999999999999 
H  -4.5928  -7.8348  0.4309000000000003 
C  -1.6339  -8.2946  -0.5648999999999997 
H  -1.0687  -8.9791  -0.8410000000000002 
C  -1.1569  -7.0189  -0.5015000000000001 
H  -0.2751999999999999  -6.838900000000001  -0.7339000000000002 
C  -1.9962  -5.983700000000001  -0.0849000000000002 
C  -1.5238999999999998  -4.5753  -0.03390000000000004 
C  -1.9428  -3.7095000000000002  0.9604999999999997 
H  -2.5219  -4.0038  1.6258999999999997 
C  -1.4924  -2.4036  0.9560000000000004 
H  -1.7751  -1.8334000000000001  1.6334999999999997 
C  -0.2599  -2.7806000000000006  -0.9339000000000004 
H  0.3275000000000001  -2.4653  -1.5833000000000004 
C  -0.6558999999999999  -4.0878000000000005  -1.0071000000000003 
H  -0.35109999999999975  -4.639600000000001  -1.6920000000000002 
C  -3.3886  -9.973700000000001  -0.35970000000000013 
H  -2.681  -10.5373  -0.6825999999999999 
H  -4.1256  -10.0013  -0.9737999999999998 
H  -3.6778  -10.285  0.5003000000000002 
49
Ligand ID: unq_CSD-OZUVUB-03-a  ===  Stoichiometry: C15H27N6  ===  Charge: 1  ===  Donors: N-N-N
Cu  0.0  0.0  0.0 
N  0.49689999999999923  0.8713000000000002  1.7679999999999998 
C  0.38319999999999954  -0.22329999999999983  2.7544000000000004 
H  0.4924999999999997  0.13580000000000014  3.6706000000000003 
H  1.0939999999999994  -0.8928999999999998  2.5976 
N  -1.2843  -1.0648  1.1695000000000002 
C  -0.9762000000000004  -0.8737999999999999  2.6152000000000006 
H  -0.9781000000000004  -1.7496999999999998  3.0772000000000004 
H  -1.6669  -0.30159999999999987  3.0336 
N  -1.6859000000000002  1.5228000000000002  0.08500000000000041 
C  -2.6465000000000005  -0.6492999999999998  0.7737000000000003 
H  -3.3091000000000004  -1.0638999999999998  1.3812000000000006 
H  -2.8348000000000004  -0.9616999999999998  -0.1458999999999997 
N  -4.568200000000001  1.0108000000000001  -3.3968999999999996 
C  -2.7764  0.8627000000000002  0.8356000000000003 
H  -3.6492000000000004  1.1340000000000003  0.45450000000000035 
H  -2.7510000000000003  1.1579000000000002  1.7806000000000006 
N  -4.464  -0.31399999999999983  -5.2818 
C  -1.0278  2.5878  0.8474000000000004 
H  -1.7028000000000008  3.2620999999999998  1.1141000000000005 
H  -0.3611000000000004  3.0367  0.2703000000000002 
N  -5.3179  -1.1642  -3.331 
C  -0.33860000000000046  2.0577  2.0856000000000003 
H  0.23129999999999917  2.7674  2.4739000000000004 
H  -1.0192000000000005  1.8093000000000004  2.7608000000000006 
C  -2.0717000000000008  1.9354  -1.2901999999999998 
H  -2.3788  1.1359000000000004  -1.7869999999999997 
H  -1.2698  2.2840000000000003  -1.7518999999999998 
C  -3.1637000000000004  2.9928000000000003  -1.3492999999999997 
C  -2.8294000000000006  4.3195  -1.1233 
H  -1.9195000000000002  4.5526  -0.9783999999999997 
C  -3.7955000000000005  5.311999999999999  -1.105 
H  -3.5485  6.214600000000001  -0.9432999999999998 
C  -5.117500000000001  4.984299999999999  -1.3187999999999998 
H  -5.787000000000001  5.655799999999999  -1.2863999999999998 
C  -5.4598  3.6700000000000004  -1.5830999999999997 
H  -6.369800000000001  3.4475000000000002  -1.7447999999999997 
C  -4.4952000000000005  2.6679999999999997  -1.6182999999999998 
C  -4.9278  1.2744  -2.0077999999999996 
H  -4.4879  0.6114999999999999  -1.4185999999999999 
H  -5.9072000000000005  1.1856  -1.8952999999999998 
C  -4.7996  -0.1468999999999998  -3.9947999999999997 
H  -4.4459  0.33260000000000023  -5.7147 
H  -1.1484000000000005  -1.8929999999999998  0.9508999999999999 
H  -5.5482000000000005  -1.8739  -3.7881 
H  -4.795100000000001  -1.0046  -5.6866 
H  -5.5892  -1.1097  -2.5646999999999998 
H  1.2352999999999996  1.0968  1.6962000000000002 
H  -4.1685  1.4979  -3.7881 
49
Ligand ID: unq_CSD-OZUWAI-03-a  ===  Stoichiometry: C15H27N6  ===  Charge: 1  ===  Donors: N-N-N
Cu  0.0  0.0  0.0 
N  1.1585999999999999  1.5987  -0.3892 
C  1.3569  1.7346999999999997  2.0702 
H  2.3190000000000004  1.5029  2.0987999999999998 
H  1.1576  2.3129999999999997  2.8477000000000006 
H  0.8363  2.0018  -1.0383 
N  1.7781999999999998  -0.9818  0.04459999999999997 
C  1.0591  2.4947  0.7859999999999998 
H  0.1478  2.8781  0.8339999999999999 
H  1.7015  3.2415999999999996  0.687 
H  1.6115000000000002  -1.7508  -0.23109999999999986 
N  0.5527  0.5004000000000001  2.1573 
C  2.563  1.2064  -0.7105 
H  3.1592000000000002  1.4712999999999998  0.03510000000000013 
H  2.8608000000000002  1.6801999999999997  -1.5265 
N  0.24630000000000002  3.0700999999999996  9.098899999999999 
C  2.6586000000000003  -0.2924  -0.9296 
H  2.3798000000000004  -0.5161  -1.8538 
H  3.5942000000000003  -0.5912  -0.8080999999999999 
N  2.2270000000000003  3.9582  8.283199999999999 
C  2.3528000000000002  -1.0385  1.4156000000000002 
H  3.1105  -0.405  1.4747000000000001 
H  2.7064000000000004  -1.9487  1.5801 
N  0.7716000000000001  5.2797  9.4576 
C  1.3382  -0.6978  2.5013000000000005 
H  0.7251999999999998  -1.4653  2.6286000000000005 
H  1.8141  -0.5433  3.3553000000000006 
C  -0.6626  0.6582  2.9903000000000004 
H  -1.198  -0.17179999999999995  2.9226 
H  -1.207  1.3939999999999997  2.6147 
C  -0.4135  0.9481  4.4512 
C  -0.11309999999999998  -0.07979999999999998  5.341600000000001 
H  -0.09589999999999999  -0.9782  5.0334 
C  -0.4624  2.2431  4.9444 
H  -0.6862  2.9568  4.3594 
C  0.16250000000000003  0.19099999999999995  6.6758 
H  0.37110000000000004  -0.5226999999999999  7.2663 
C  -0.1896  2.5189999999999997  6.2858 
H  -0.2286  3.4137  6.6034 
C  0.1375  1.4947999999999997  7.1559 
C  0.4835  1.7258  8.6185 
H  -0.04580000000000001  1.0966999999999998  9.1691 
H  1.4401  1.5080999999999998  8.7531 
C  1.0883  4.0833  8.9536 
H  -0.4396  3.179  9.546299999999999 
H  2.4325  3.2379000000000002  7.9348 
H  0.14240000000000003  5.3128  9.992899999999999 
H  2.7584  4.6359  8.2843 
H  1.3782999999999999  5.849900000000001  9.454799999999999 
30
Ligand ID: unq_CSD-OZOPID-03-a  ===  Stoichiometry: C11H8ClN2O6S  ===  Charge: -3  ===  Donors: O-O-N
Cu  0.0  0.0  0.0 
Cl  4.9799  2.8225000000000007  -3.5898 
S  3.4416  3.1384  1.6327000000000003 
O  1.2048  1.3696000000000002  0.6625000000000001 
O  -1.3349  -1.1078000000000001  -0.8986000000000001 
O  3.3129  2.0043000000000006  2.5578 
O  4.7883000000000004  3.6888999999999994  1.6810000000000005 
O  2.3999  4.127  1.8449000000000004 
O  -1.6098999999999999  -1.7840999999999996  -5.0501 
N  0.7886000000000002  0.3874000000000004  -1.7163999999999997 
N  0.5262  -0.046800000000000175  -2.8867 
C  2.0782000000000003  1.6913  -0.26039999999999974 
C  3.2276  2.4958  0.006200000000000205 
C  4.1203  2.825  -1.0048 
H  4.8764  3.3701  -0.8199999999999998 
C  3.8926  2.3434  -2.2984 
C  2.8151  1.537  -2.5936 
H  2.6816  1.2102000000000004  -3.4751 
C  1.9238  1.2098000000000004  -1.572 
C  -0.5380999999999999  -0.8472999999999997  -3.1416 
C  -0.6577  -1.1476999999999995  -4.5615 
C  0.4142000000000001  -0.6364999999999998  -5.4791 
H  0.19190000000000018  -0.8713999999999995  -6.4041 
H  1.2730000000000001  -1.0423  -5.237 
H  0.4782000000000002  0.3379000000000003  -5.3963 
C  -1.4544  -1.3640999999999996  -2.138 
C  -2.5891  -2.2592999999999996  -2.5288 
H  -2.9984  -2.6388  -1.7227999999999999 
H  -2.2531999999999996  -2.9842999999999997  -3.096 
H  -3.2588  -1.7417999999999996  -3.0227 
2
Ligand ID: unq_CSD-PACGOP-01-b  ===  Stoichiometry: N  ===  Charge: -3  ===  Donors: N
Cu  0.0  0.0  0.0 
N  -1.6471999999999998  -0.46399999999999864  -0.6740999999999993 
3
Ligand ID: unq_CSD-PABWOE-01-b  ===  Stoichiometry: NS  ===  Charge: 1  ===  Donors: N
Cu  0.0  0.0  0.0 
S  1.0233999999999996  -1.0045000000000002  -2.9808 
N  0.42589999999999995  -0.4923000000000002  -1.6587 
72
Ligand ID: unq_CSD-PACREQ-06-a  ===  Stoichiometry: C25H37N6Si3  ===  Charge: -3  ===  Donors: N-N-N-N-N-N
Cu  0.0  0.0  0.0 
C  -0.8081  -1.8893999999999997  -1.5859000000000005 
C  -1.2195999999999998  -2.923  -2.436 
C  -1.5272999999999999  -4.1567  -1.9069000000000003 
C  -1.4082  -4.347799999999999  -0.5443999999999996 
C  -0.9748999999999999  -3.3030999999999997  0.25430000000000064 
C  -2.2390999999999996  1.2825000000000002  0.4123000000000001 
C  -3.4798999999999998  1.8738000000000006  0.6948000000000008 
C  -4.4272  1.1847000000000003  1.4267000000000003 
C  -4.093  -0.07779999999999987  1.9108999999999998 
C  -2.8590999999999998  -0.6134999999999999  1.6244999999999994 
C  2.4948000000000006  -0.05779999999999985  -0.7422000000000004 
C  3.8445  -0.18009999999999993  -1.1402999999999999 
C  4.4744  -1.4003999999999999  -1.0092999999999996 
C  3.7730000000000006  -2.4696  -0.4648000000000003 
C  2.4692  -2.3028999999999997  -0.08469999999999978 
C  0.011900000000000244  2.0783  -2.8263 
C  -3.085  2.0204999999999997  -2.5733999999999995 
C  -1.6347999999999998  4.447800000000001  -1.6769999999999996 
C  1.487  -0.4112999999999998  -4.0758 
C  -1.4021  -0.037799999999999834  -4.6485 
C  1.5166000000000004  3.8899000000000004  -0.677999999999999 
C  3.0362  2.6406000000000005  -2.9059999999999997 
C  -1.9903999999999997  -5.2836  -2.7981 
C  -5.759399999999999  1.7938000000000005  1.7220999999999993 
C  5.920599999999999  -1.5892999999999997  -1.4510000000000005 
N  -1.1798  1.7449  -0.31840000000000046 
N  -1.9762999999999997  0.05110000000000037  0.8757999999999999 
N  -0.4767999999999999  -0.5823999999999998  -1.8735 
N  -0.6938  -2.0984  -0.24910000000000032 
N  1.6290000000000004  1.0113000000000003  -0.7768999999999995 
N  1.8524000000000003  -1.1269999999999998  -0.22080000000000055 
Si  -1.4630999999999998  2.5895000000000006  -1.8233999999999995 
Si  -0.09830000000000005  0.26670000000000016  -3.3387000000000002 
Si  1.5612000000000004  2.405  -1.8066999999999993 
H  -1.2838999999999998  -2.7784999999999997  -3.3515999999999995 
H  -1.6172  -5.172499999999999  -0.16690000000000005 
H  -0.8778999999999999  -3.4454  1.1685999999999996 
H  -3.6656999999999997  2.7318000000000002  0.3865999999999996 
H  -4.7023  -0.5556999999999999  2.4258000000000006 
H  -2.637  -1.4537999999999998  1.9571000000000005 
H  4.3029  0.5512000000000001  -1.484399999999999 
H  4.1872  -3.2942  -0.3582000000000001 
H  2.0040000000000004  -3.0231  0.2749000000000006 
H  0.04720000000000013  2.6317  -3.6353999999999997 
H  -3.8127  2.3072000000000004  -2.0173000000000005 
H  -3.0892999999999997  1.0625  -2.6363000000000003 
H  -3.1826  2.3984  -3.4492000000000003 
H  -2.4088  4.656700000000001  -1.1504999999999992 
H  -1.7303  4.8279  -2.5527999999999995 
H  -0.8521000000000001  4.8079  -1.2546 
H  2.2068000000000003  -0.29349999999999987  -3.4504 
H  1.6883  0.057700000000000085  -4.8887 
H  1.3784999999999998  -1.3470999999999997  -4.2633 
H  -2.2504  0.2867000000000002  -4.3378 
H  -1.4646  -0.9802999999999997  -4.8245 
H  -1.1594999999999998  0.42230000000000034  -5.455 
H  0.7652000000000001  3.8187  -0.08339999999999925 
H  1.4339000000000004  4.690100000000001  -1.2032000000000007 
H  2.3272000000000004  3.9276000000000004  -0.16559999999999953 
H  3.106  1.8982000000000006  -3.5107999999999997 
H  3.8297  2.6940000000000004  -2.3691999999999993 
H  2.9343000000000004  3.4542000000000006  -3.4067999999999996 
H  -2.1569  -6.0638  -2.2652 
H  -1.3102999999999998  -5.4793  -3.4466 
H  -2.7977  -5.0236  -3.2474999999999996 
H  -6.286099999999999  1.1803000000000003  2.2383000000000006 
H  -6.2112  1.9894000000000003  0.8977000000000004 
H  -5.6373  2.6073  2.2189999999999994 
H  6.189900000000001  -2.4962999999999997  -1.2891999999999992 
H  6.4873  -0.9935999999999998  -0.9541000000000004 
H  5.997800000000001  -1.396  -2.3885000000000005 
15
Ligand ID: unq_CSD-PAFGAG-01-e  ===  Stoichiometry: C5H9  ===  Charge: -3  ===  Donors: C
Cu  0.0  0.0  0.0 
C  -1.2059999999999995  1.2332  -0.23570000000000046 
C  -2.3689999999999998  2.1736999999999993  -0.3792 
C  -2.5794999999999995  2.4975999999999994  -1.8635000000000002 
H  -2.7404999999999995  1.6845999999999997  -2.3481 
H  -1.7944999999999998  2.926899999999999  -2.2116000000000002 
H  -3.3343999999999996  3.0842  -1.9599000000000002 
C  -2.0980999999999996  3.473  0.3934999999999995 
H  -2.8467999999999996  4.067099999999999  0.2953000000000001 
H  -1.3083  3.894099999999999  0.04499999999999993 
H  -1.9701999999999997  3.272899999999999  1.3232999999999997 
C  -3.6213999999999995  1.4796999999999993  0.1921999999999997 
H  -4.3778999999999995  2.0619999999999994  0.10470000000000024 
H  -3.4787999999999997  1.2756999999999996  1.12 
H  -3.7861999999999996  0.6662999999999997  -0.29200000000000026 
13
Ligand ID: unq_CSD-PAFGEK-01-d  ===  Stoichiometry: C7H5  ===  Charge: -3  ===  Donors: C
Cu  0.0  0.0  0.0 
C  -1.1416  0.6502999999999997  -1.1728999999999998 
C  -2.0823  1.1964000000000006  -2.1393999999999997 
C  -3.0740999999999996  2.0993999999999993  -1.7540999999999998 
H  -3.1567  2.3378999999999994  -0.8592 
C  -3.9381  2.6438000000000006  -2.6898999999999997 
H  -4.5912999999999995  3.2464999999999993  -2.4194999999999998 
C  -3.8308999999999997  2.294599999999999  -4.0207999999999995 
H  -4.4153  2.6571999999999996  -4.6469 
C  -2.8666  1.4155999999999995  -4.4109 
H  -2.7946  1.1829999999999998  -5.308999999999999 
C  -1.9960999999999998  0.8660999999999994  -3.4962999999999997 
H  -1.3443999999999998  0.2685999999999993  -3.7847999999999997 
78
Ligand ID: unq_CSD-OZUZUG-02-a  ===  Stoichiometry: C32H35N8O2  ===  Charge: 1  ===  Donors: O-N
Cu  0.0  0.0  0.0 
O  -1.1553  -0.5095999999999989  -1.7773000000000003 
O  -3.1155  -2.6936  -1.9643000000000002 
H  -2.5191  -3.148199999999999  -1.7656 
N  1.4261999999999997  -1.583400000000001  -1.4149000000000003 
N  1.2560000000000002  -1.8674999999999997  -2.724 
N  2.075  -2.769400000000001  -3.2406 
N  -1.2059  -4.3858999999999995  -2.2658 
N  -1.4487999999999999  -4.397199999999998  -3.5866000000000002 
N  -0.5983999999999998  -5.109499999999999  -4.3347 
N  -3.7361  0.02400000000000091  -2.4412000000000003 
H  -3.1174  -0.4206000000000003  -2.0344 
N  -4.4932  1.1837000000000018  0.9893000000000001 
H  -3.7033  1.369600000000002  1.0161999999999995 
C  -0.8681999999999999  -0.6193999999999988  -3.0700000000000003 
C  0.2791000000000001  -1.2444999999999986  -3.5843000000000003 
C  0.5127999999999999  -1.3091000000000008  -4.9646 
H  1.311  -1.715399999999999  -5.2826 
C  -0.3889999999999998  -0.798099999999998  -5.8658 
C  -1.5351  -0.1811000000000007  -5.3726 
H  -2.1751  0.17190000000000083  -5.9792000000000005 
C  -1.7550999999999999  -0.07569999999999766  -4.0156 
C  -2.9095999999999997  0.7482000000000006  -3.5013000000000005 
H  -3.4985999999999997  0.9871000000000016  -4.261 
H  -2.5576999999999996  1.5890000000000022  -3.1156 
C  -4.7984  -0.8842999999999996  -3.0057 
H  -5.2804  -1.3297999999999988  -2.2647000000000004 
H  -5.4532  -0.3484999999999978  -3.5188 
C  -4.1922999999999995  -1.9216999999999977  -3.9022 
C  -3.2605999999999997  -2.7866999999999997  -3.3061000000000003 
C  -2.5107  -3.6281  -4.1348 
C  -2.7398  -3.652000000000001  -5.5175 
H  -2.2127999999999997  -4.217199999999998  -6.0703000000000005 
C  -3.7218999999999998  -2.8665999999999983  -6.0832 
C  -4.4193999999999996  -1.9749999999999979  -5.2557 
H  -5.0651  -1.3924999999999983  -5.6402 
C  2.4510000000000005  -2.3934999999999995  -1.0620000000000003 
C  3.1071  -2.5662999999999982  0.18520000000000003 
H  2.8546000000000005  -2.0791000000000004  0.9600999999999997 
C  4.1313  -3.483599999999999  0.20040000000000013 
H  4.5858  -3.6434999999999995  1.0196999999999994 
C  4.5385  -4.2041  -0.9544000000000001 
H  5.2683  -4.809799999999999  -0.8831000000000007 
C  3.9193  -4.059899999999999  -2.1618000000000004 
H  4.1844  -4.552699999999998  -2.9297000000000004 
C  2.8545  -3.1239999999999988  -2.1910000000000003 
C  -0.12949999999999973  -5.165899999999999  -2.1314 
C  0.5718000000000001  -5.5634999999999994  -0.9626000000000001 
H  0.3149000000000002  -5.2706  -0.09649999999999981 
C  1.6326  -6.390499999999999  -1.1601000000000004 
H  2.1266  -6.690899999999999  -0.4051 
C  2.0282999999999998  -6.8203  -2.4505000000000003 
H  2.7906000000000004  -7.380599999999999  -2.5323 
C  1.3636999999999997  -6.4642  -3.5667 
H  1.6360999999999999  -6.7692  -4.4247000000000005 
C  0.24360000000000026  -5.6168  -3.4113 
C  -0.17589999999999995  -0.8845999999999989  -7.3642 
H  0.7760000000000002  -1.0257000000000005  -7.5512 
H  -0.4727999999999999  -0.05059999999999931  -7.785 
H  -0.6936999999999998  -1.6339000000000006  -7.7242 
C  -3.9697  -2.8878999999999984  -7.5723 
H  -3.9901999999999997  -3.815899999999999  -7.8867 
H  -3.2514  -2.402000000000001  -8.0293 
H  -4.8284  -2.458400000000001  -7.7663 
C  -4.3223  1.003700000000002  -1.4897 
H  -5.095  1.4511000000000003  -1.9164000000000003 
H  -3.6475  1.6956000000000024  -1.2759 
C  -4.7783999999999995  0.33000000000000185  -0.20170000000000066 
H  -5.7506  0.15000000000000213  -0.2519999999999998 
H  -4.3123  -0.5366  -0.10240000000000027 
C  -4.878  0.4603999999999999  2.2340999999999998 
H  -4.3769  -0.37979999999999947  2.2924999999999995 
H  -5.8383  0.26910000000000167  2.2165999999999997 
H  -4.6709  1.0183999999999997  3.0125 
C  -5.184699999999999  2.5101000000000013  0.8957999999999995 
H  -4.8088999999999995  3.0218000000000025  0.14889999999999937 
H  -5.0543  3.0061  1.7302999999999997 
H  -6.1425  2.3697000000000017  0.7462 
25
Ligand ID: unq_CSD-PAJQID-01-d  ===  Stoichiometry: C7H14BrN2  ===  Charge: 1  ===  Donors: N
Cu  0.0  0.0  0.0 
Br  0.8111999999999999  7.170900000000001  0.012399999999999967 
N  0.6915999999999998  1.9437000000000002  -0.02829999999999977 
N  1.5894  4.3764  -0.09209999999999985 
C  2.1877  1.9872999999999998  -0.039200000000000124 
H  2.5386  1.3433000000000002  -0.7027999999999999 
H  2.5378000000000003  1.7368999999999999  0.8523000000000001 
C  2.6533  3.4258  -0.40379999999999994 
H  3.4661000000000004  3.6561999999999997  0.11030000000000006 
H  2.8703999999999996  3.4730000000000003  -1.3682999999999998 
C  1.0656000000000003  4.060700000000001  1.3245 
H  0.4633999999999996  4.7844999999999995  1.6335000000000002 
H  1.8188  3.9864  1.9598999999999998 
C  0.2802000000000002  2.7056  1.2607 
H  0.4907999999999997  2.156  2.0574 
H  -0.6943999999999999  2.8798  1.2516000000000003 
C  0.1751999999999998  2.6929000000000003  -1.1714 
H  -0.7988  2.5368999999999997  -1.2515999999999998 
H  0.6062999999999996  2.3646  -2.0 
C  2.1649  5.782300000000001  -0.1640999999999999 
H  2.6298  5.896600000000001  -1.0328 
H  2.8364  5.8947  0.5533000000000001 
C  0.43889999999999985  4.195  -1.0228 
H  0.6492  4.590400000000001  -1.9051999999999998 
H  -0.3649  4.646700000000001  -0.6617999999999999 
14
Ligand ID: unq_CSD-OZOPID-01-a  ===  Stoichiometry: C2H9N2  ===  Charge: 1  ===  Donors: N
Cu  0.0  0.0  0.0 
N  -0.7595999999999999  -0.3603999999999994  1.8169999999999997 
H  -1.1896  -1.1082  1.7521999999999998 
H  -1.3599999999999999  0.25119999999999987  1.9582000000000002 
N  0.5947  2.0302000000000007  3.3855999999999997 
H  0.06290000000000018  2.2906000000000004  2.7260000000000004 
H  1.4083999999999999  1.8642000000000003  3.0669 
H  0.6411  2.6691000000000003  4.005800000000001 
C  0.24050000000000016  -0.4177999999999997  2.9278 
H  1.1513  -0.39979999999999993  2.5391 
H  0.13529999999999998  -1.2765999999999997  3.4089000000000005 
C  0.10920000000000019  0.7261000000000006  3.9272000000000005 
H  -0.8416999999999999  0.8185000000000002  4.1874 
H  0.6253  0.5028000000000006  4.741800000000001 
