20
Ligand ID: unq_CSD-PAKVOP-01-b  ===  Stoichiometry: C10H8N  ===  Charge: -1  ===  Donors: N
Cu  0.0  0.0  0.0 
N  1.8807999999999998  0.22970000000000113  -0.33470000000000066 
C  2.9581999999999997  0.7706999999999997  0.2889999999999997 
C  3.0189  0.7910000000000004  1.6766999999999999 
H  2.2866  0.4442000000000004  2.1697999999999995 
C  4.1112  1.2990000000000013  2.3713999999999995 
H  4.1042  1.2894000000000005  3.3225 
C  5.1981  1.8123000000000005  1.7159999999999997 
H  5.9344  2.1601999999999997  2.2047 
C  5.2105  1.816600000000001  0.3032999999999997 
C  6.2949  2.3694000000000006  -0.41630000000000056 
H  7.0357  2.7279999999999998  0.058099999999999596 
C  6.2972  2.3971  -1.7671000000000001 
H  7.037800000000001  2.7749000000000006  -2.2250000000000005 
C  5.2262  1.8773999999999997  -2.5054000000000007 
H  5.2378  1.8924000000000003  -3.4539 
C  4.1552999999999995  1.3449000000000009  -1.8240000000000007 
H  3.42  1.0023  -2.3203000000000005 
C  4.1043  1.2873  -0.41690000000000005 
H  1.9730999999999999  0.11650000000000027  -1.0977000000000006 
7
Ligand ID: unq_CSD-PALJAP-01-a  ===  Stoichiometry: CH3OS  ===  Charge: -1  ===  Donors: S
Cu  0.0  0.0  0.0 
S  1.0108  1.7467000000000001  1.2568000000000001 
O  1.4295  2.8764  0.2804 
C  -0.3353  2.4946999999999995  2.2025 
H  0.00940000000000002  3.2544  2.7171999999999996 
H  -0.7129  1.8298  2.8160000000000003 
H  -1.0324  2.8055999999999996  1.5878999999999999 
15
Ligand ID: unq_CSD-PAKSUQ-01-a  ===  Stoichiometry: C5H4NO3S  ===  Charge: -1  ===  Donors: N
Cu  0.0  0.0  0.0 
C  0.46450000000000014  -0.037799999999999834  2.898999999999999 
H  1.2557  0.2572000000000001  2.6507999999999994 
C  0.18040000000000056  -0.18379999999999974  4.2404 
H  0.8361999999999998  -0.044800000000000395  4.8569 
C  -1.0851999999999995  -0.5926999999999998  4.6078 
C  -2.0075  -0.8813000000000004  3.625799999999999 
H  -2.7672999999999996  -1.1762000000000001  3.8427999999999995 
C  -1.6336  -0.7479000000000005  2.302199999999999 
H  -2.2499  -0.9187000000000003  1.5833999999999993 
N  -0.4306000000000001  -0.30160000000000053  1.9372999999999996 
O  -2.9511  -0.7206999999999999  6.394899999999999 
O  -0.9676  -2.0493  6.686599999999999 
O  -0.8743999999999996  0.3431999999999995  6.998599999999999 
S  -1.5177999999999998  -0.7765000000000004  6.3243 
21
Ligand ID: unq_CSD-OZIYON-02-a  ===  Stoichiometry: C10H6F2N2  ===  Charge: 0  ===  Donors: N-N
Cu  0.0  0.0  0.0 
F  -4.7867999999999995  0.125  -3.9460000000000006 
F  0.38070000000000004  5.1037  -3.4881 
N  -1.7165  -0.01180000000000092  -1.2637999999999998 
N  0.20350000000000001  1.8072999999999997  -1.1483000000000008 
C  -2.6942  -0.8981000000000003  -1.222900000000001 
H  -2.6641  -1.5598  -0.5707000000000004 
C  -3.7560000000000002  -0.8884000000000007  -2.1006 
H  -4.4297  -1.5281000000000002  -2.0541 
C  -3.7766  0.08589999999999876  -3.024700000000001 
C  -2.7913  1.030899999999999  -3.0923 
H  -2.8202  1.6974999999999998  -3.7389 
C  -1.762  0.9795999999999996  -2.1949000000000005 
C  -0.7388999999999999  1.9879999999999995  -2.1061999999999994 
C  -0.6641999999999999  3.1014999999999997  -2.9162 
H  -1.2865  3.2309  -3.5952 
C  0.3246000000000002  4.0098  -2.7133000000000003 
C  1.2610999999999999  3.826699999999999  -1.7553999999999998 
H  1.9398999999999997  4.449299999999999  -1.6243999999999996 
C  1.1818  2.7010000000000005  -0.9848999999999997 
H  1.8239999999999998  2.554499999999999  -0.32840000000000025 
19
Ligand ID: unq_CSD-PACTEW-02-a  ===  Stoichiometry: C6H5N4O3  ===  Charge: -1  ===  Donors: N-N
Cu  0.0  0.0  0.0 
O  -3.8091  -0.1266999999999996  -2.648600000000002 
O  -0.8738000000000001  0.02210000000000001  2.8859999999999992 
O  -5.8927  0.027599999999999625  -2.026500000000002 
N  -1.2633  0.03560000000000052  1.6712999999999987 
N  -4.6791  0.002000000000000668  -1.744600000000002 
N  -1.8401  -0.019000000000000128  -0.8224000000000018 
H  -1.9406000000000003  -0.08639999999999937  -1.6942000000000021 
C  -2.8878000000000004  0.07120000000000104  -0.03190000000000026 
N  -3.3982  0.1647999999999996  3.645699999999998 
H  -4.0584  0.21990000000000087  4.2255 
H  -2.5675  0.10790000000000077  3.929199999999998 
C  -2.5924  0.09240000000000137  1.3852999999999973 
C  -3.654  0.16800000000000104  2.3607999999999976 
C  -5.2698  0.22440000000000104  0.5706999999999987 
H  -6.1769  0.2876000000000012  0.296599999999998 
C  -4.2768  0.09700000000000131  -0.4051000000000009 
C  -4.9809  0.2586000000000013  1.8948 
H  -5.6891  0.34660000000000046  2.5224999999999973 
19
Ligand ID: unq_CSD-PAFHIO-02-a  ===  Stoichiometry: C6H7N5  ===  Charge: 0  ===  Donors: N-N
Cu  0.0  0.0  0.0 
N  1.8786999999999998  -0.02269999999999861  -1.0617999999999999 
N  3.8588  -0.09509999999999863  -2.0730000000000004 
N  4.2097999999999995  -2.5280999999999985  -2.0828000000000007 
N  2.1164  -3.5936999999999992  -1.0201000000000011 
N  0.3235999999999999  -2.1301999999999985  -0.26040000000000063 
H  0.2703000000000002  -2.546899999999999  0.5580999999999996 
H  -0.3417000000000001  -2.4749  -0.7967000000000013 
C  2.881  0.6963000000000008  -1.589500000000001 
H  2.8992  1.6453000000000007  -1.6190000000000007 
C  3.4905000000000004  -1.3735999999999997  -1.8080000000000007 
C  2.2847000000000004  -1.3008999999999986  -1.1907000000000005 
C  1.4975  -2.3920999999999992  -0.8053000000000008 
C  3.5183000000000004  -3.5340999999999996  -1.6595000000000004 
H  3.9456  -4.3767  -1.757600000000001 
C  5.0847999999999995  0.34060000000000024  -2.7173000000000007 
H  5.6198999999999995  -0.44200000000000017  -2.9652000000000003 
H  5.596  0.904300000000001  -2.1000000000000005 
H  4.8658  0.8545000000000016  -3.522400000000001 
14
Ligand ID: unq_CSD-PADNEO-02-a  ===  Stoichiometry: C2H8N2S  ===  Charge: 0  ===  Donors: N-N
Cu  0.0  0.0  0.0 
S  3.0229999999999997  -0.0734999999999999  1.0976000000000004 
N  1.9999  0.15660000000000007  -0.18599999999999994 
H  2.2540999999999998  -0.4382999999999999  -0.8403999999999998 
H  2.1715  0.9990999999999999  -0.5154999999999998 
N  0.2512  -1.7749  0.8651000000000004 
H  -0.5612  -2.0151  1.2235999999999998 
H  0.43270000000000003  -2.3764  0.19390000000000063 
C  2.6018  -1.7478  1.3944000000000005 
H  2.6980999999999997  -2.2467  0.5447000000000002 
H  3.2567  -2.1242  2.0336000000000003 
C  1.2609000000000001  -1.9878  1.9161000000000006 
H  1.0861  -1.3735  2.6728 
H  1.1984000000000001  -2.9162999999999997  2.2532 
33
Ligand ID: unq_CSD-PAGNAP-03-a  ===  Stoichiometry: C12H17N3  ===  Charge: 0  ===  Donors: N-N-N
Cu  0.0  0.0  0.0 
N  1.7409  0.6632000000000002  0.5446000000000004 
N  1.1439  -1.7043  -0.007000000000000117 
N  -0.444  2.0002999999999997  -0.02959999999999985 
H  -0.16549999999999998  2.3009  -0.8422000000000001 
C  2.4042  -1.5046  0.4187999999999996 
C  3.319  -2.5212000000000003  0.5589999999999997 
H  4.1782  -2.3531000000000004  0.8712000000000004 
C  2.9288  -3.7851  0.22840000000000016 
H  3.5238  -4.4952000000000005  0.30920000000000014 
C  1.6646  -4.0007  -0.22100000000000009 
H  1.3871000000000002  -4.8571  -0.45330000000000004 
C  0.7901999999999999  -2.9247  -0.3273999999999999 
H  -0.07429999999999998  -3.077  -0.6355 
C  2.6860999999999997  -0.10220000000000029  0.7401000000000004 
H  3.5092000000000003  0.1865000000000001  1.0635999999999997 
C  1.8255  2.1722999999999995  0.7463000000000002 
H  2.3761  2.382  1.517 
H  2.2081999999999997  2.5996  -0.03569999999999984 
C  0.4182  2.6351999999999998  0.9643000000000002 
H  0.13229999999999997  2.3345  1.8516999999999997 
C  0.37070000000000003  4.1541999999999994  0.9418000000000002 
H  0.7857999999999999  4.484500000000001  0.1301000000000001 
H  0.8590000000000001  4.510200000000001  1.7002000000000002 
C  -1.0806  4.607100000000001  1.0021999999999998 
H  -1.4292  4.417300000000001  1.8874999999999997 
H  -1.1122999999999998  5.5684000000000005  0.8741999999999996 
C  -1.9722  3.9564  -0.016199999999999992 
H  -1.7170999999999998  4.2392  -0.9077000000000002 
H  -2.8937  4.2195  0.1352000000000002 
C  -1.8384  2.4532000000000003  0.10349999999999993 
H  -2.1829  2.1703999999999994  0.9652999999999996 
H  -2.3766  2.0299  -0.5842999999999998 
24
Ligand ID: unq_CSD-PABYOI-02-a  ===  Stoichiometry: C11H7ClN4  ===  Charge: 0  ===  Donors: N-N
Cu  0.0  0.0  0.0 
N  1.8333000000000004  1.0601000000000003  0.11519999999999997 
C  3.2721999999999998  2.318100000000001  1.5292 
C  1.9737  1.8512000000000004  1.1535000000000002 
C  2.9008000000000003  0.9314  -0.7532 
C  2.7637  0.32890000000000086  -2.0013 
H  1.9463  -0.03810000000000002  -2.2505 
C  5.2321  1.4063999999999997  -1.2738 
H  6.059500000000001  1.7552000000000003  -1.0325 
C  4.1499999999999995  1.4930000000000003  -0.383 
C  3.8241000000000005  0.2751999999999999  -2.8621 
H  3.7271  -0.11679999999999957  -3.7001999999999997 
C  5.076300000000001  0.8215000000000003  -2.4687 
H  5.7993  0.7736999999999998  -3.0516 
N  -0.34299999999999997  1.4985999999999997  1.3626 
N  0.7831999999999999  2.1333  1.8429000000000002 
N  4.306400000000001  2.1312999999999995  0.8083999999999999 
C  -1.3731999999999998  2.0577000000000005  1.9469000000000003 
H  -2.2584  1.8046000000000006  1.8166000000000002 
C  0.4073000000000002  3.1226000000000003  2.7051000000000003 
H  0.9741  3.7106000000000012  3.1504000000000003 
C  -0.9531999999999998  3.0870999999999995  2.7939000000000003 
H  -1.4931  3.6380999999999997  3.3126 
Cl  3.5213  3.1220999999999997  3.0427 
8
Ligand ID: unq_CSD-OZUJEZ-01-c  ===  Stoichiometry: P4S3  ===  Charge: 0  ===  Donors: P
Cu  0.0  0.0  0.0 
S  -0.5887000000000002  1.0703999999999994  -3.4840999999999998 
S  2.4985  1.1420999999999992  -2.6634 
S  1.0492999999999988  -1.657  -3.1683 
P  0.7292000000000005  0.14920000000000044  -2.14 
P  0.398299999999999  0.8754999999999988  -5.3307 
P  2.558399999999999  0.9316999999999993  -4.755 
P  1.536999999999999  -1.039299999999999  -5.1181 
21
Ligand ID: unq_CSD-OZUZER-01-b  ===  Stoichiometry: C6H11N3  ===  Charge: 0  ===  Donors: C
Cu  0.0  0.0  0.0 
N  2.1069  0.34919999999999973  2.1816999999999998 
N  1.2754999999999996  -1.5996000000000006  2.2515999999999994 
N  2.2244999999999995  -1.5804999999999998  3.2669 
C  1.1899000000000002  -0.44209999999999994  1.5665 
C  2.3638999999999997  2.645199999999999  3.0448999999999997 
H  1.4968  2.5481999999999996  3.4915999999999996 
H  2.4938  3.5813000000000006  2.7831999999999995 
H  3.0794  2.374599999999999  3.6573999999999995 
C  2.7083999999999997  -0.375  3.1859999999999995 
H  3.3928999999999996  -0.03629999999999978  3.7506 
C  3.7196000000000002  1.8491  1.0621999999999994 
H  4.449199999999999  1.5929000000000002  1.6650999999999994 
H  3.8608  2.7673000000000005  0.7511999999999994 
H  3.7026  1.2409999999999997  0.29349999999999987 
C  2.3977999999999997  1.7629000000000001  1.8048999999999995 
H  1.6756999999999995  2.0729999999999995  1.1854999999999998 
C  0.5091999999999999  -2.817  2.0104 
H  0.8706999999999998  -3.2803  1.2266 
H  -0.4294000000000002  -2.5860000000000003  1.8486999999999996 
H  0.5712999999999995  -3.4024  2.7941999999999996 
15
Ligand ID: unq_CSD-PAFZOO-01-c  ===  Stoichiometry: C4H6N2S2  ===  Charge: 0  ===  Donors: N
Cu  0.0  0.0  0.0 
S  0.8084999999999996  3.1615  6.120199999999999 
S  2.0275999999999996  0.8128000000000011  4.8078 
N  0.3782999999999994  1.1126000000000005  1.5924 
N  0.3152999999999997  2.470600000000001  3.6342000000000003 
C  0.40219999999999967  1.700000000000001  2.5782000000000003 
C  0.9765999999999995  2.1806  4.7318999999999996 
C  -0.4107000000000003  4.348000000000001  5.5541 
H  -0.5797000000000003  5.005700000000001  6.2600999999999996 
H  -1.2451000000000003  3.880700000000001  5.337 
H  -0.07540000000000013  4.805  4.7545 
C  2.5965999999999996  0.811300000000001  6.5138 
H  3.1815999999999995  0.039400000000000546  6.662099999999999 
H  1.8239999999999998  0.7553999999999998  7.115599999999999 
H  3.0919  1.636800000000001  6.693199999999999 
33
Ligand ID: unq_CSD-OZOZOU-02-a  ===  Stoichiometry: C17H11ClN2O  ===  Charge: 0  ===  Donors: N-N
Cu  0.0  0.0  0.0 
N  1.3217000000000003  -1.3628  0.8607 
N  -0.8306999999999998  -1.8056  -0.6411 
O  -0.3647999999999998  -4.0872  -0.6542000000000001 
C  2.4052000000000002  -1.0981  1.6561000000000001 
C  2.6944000000000004  0.23830000000000018  1.9993 
H  2.1533  0.9262000000000001  1.6853 
C  3.7727  0.5226000000000002  2.7947 
H  3.959  1.4049  3.0204 
C  4.5916  -0.5025999999999999  3.2684 
H  5.3148  -0.2943  3.8143000000000002 
C  4.3522  -1.7949  2.945 
H  4.9155999999999995  -2.4623  3.2653 
C  3.2501  -2.138  2.1235999999999997 
C  2.9545  -3.4532  1.7318 
H  3.501  -4.1517  2.0113 
C  1.8733  -3.7138  0.9433 
H  1.6656999999999997  -4.583  0.6871 
C  1.0771000000000002  -2.6249000000000002  0.5291 
C  -0.10829999999999984  -2.8169  -0.3331 
C  -1.1565999999999999  -4.2873  -1.8624999999999998 
H  -1.5324  -5.1826  -1.8599 
H  -0.5869  -4.2015  -2.6428 
C  -2.2654  -3.2784  -1.9354 
C  -3.4668  -3.5063  -2.5884 
H  -3.6343  -4.3298000000000005  -2.9875 
C  -4.4078  -2.5048  -2.6407 
Cl  -5.8994  -2.7738  -3.4933 
C  -4.2053  -1.2844  -2.0394 
H  -4.8611  -0.6260000000000001  -2.0704 
C  -3.0084999999999997  -1.0565  -1.3878 
H  -2.8533  -0.23550000000000004  -0.9818 
C  -2.0392  -2.0474  -1.3372 
