16
Ligand ID: unq_CSD-PALJAP-01-b  ===  Stoichiometry: C5H8N2  ===  Charge: 0  ===  Donors: C
Cu  0.0  0.0  0.0 
N  1.934  -1.9549  1.3452000000000002 
N  2.6181  -1.4715000000000003  -0.6182 
C  1.6281  -1.1958000000000002  0.2622 
C  3.0873999999999997  -2.7006  1.1402 
H  3.4894999999999996  -3.3079  1.7499000000000002 
C  3.5215999999999994  -2.3919  -0.09499999999999997 
H  4.2949  -2.7354000000000003  -0.5265 
C  1.145  -1.9655  2.5718 
H  0.42600000000000005  -1.3019000000000003  2.5032 
H  1.7207999999999999  -1.7449000000000001  3.3333 
H  0.7563  -2.8561  2.7021 
C  2.7675  -0.8361000000000001  -1.9262 
H  1.9688999999999999  -0.3027000000000002  -2.1237 
H  2.8783000000000003  -1.5256  -2.6135 
H  3.5550999999999995  -0.25260000000000016  -1.9178 
15
Ligand ID: unq_CSD-OZOVOP-01-a  ===  Stoichiometry: C6H7N  ===  Charge: 0  ===  Donors: N
Cu  0.0  0.0  0.0 
N  0.09890000000000043  -1.4811000000000005  1.4434999999999985 
C  -1.1425999999999998  -2.2190000000000003  1.7109999999999985 
C  -2.3331999999999997  -1.5402000000000005  1.7944999999999993 
H  -2.356  -0.6013000000000002  1.6574999999999989 
C  -3.5128999999999997  -2.2372000000000005  2.082799999999999 
H  -4.3401  -1.7713  2.128499999999999 
C  -3.4696999999999996  -3.6153000000000004  2.300699999999999 
H  -4.261799999999999  -4.099900000000001  2.504199999999999 
C  -2.2340999999999998  -4.270600000000001  2.2132999999999985 
H  -2.1929999999999996  -5.208600000000001  2.362 
C  -1.0938999999999997  -3.5913000000000004  1.9196999999999989 
H  -0.2667999999999999  -4.0536  1.8583999999999996 
H  0.40140000000000065  -1.2044000000000006  2.4703 
H  0.8956  -1.8600000000000003  1.0091 
14
Ligand ID: unq_CSD-OZOVUV-01-a  ===  Stoichiometry: C6H6N  ===  Charge: -1  ===  Donors: N
Cu  0.0  0.0  0.0 
N  1.156699999999999  1.4373000000000005  0.7569999999999997 
C  1.4457000000000004  1.7569999999999997  2.0496 
C  2.5641999999999996  2.5450999999999997  2.3758 
C  2.8324999999999996  2.892900000000001  3.6807000000000016 
C  2.0077  2.491900000000001  4.707799999999999 
C  0.8817000000000004  1.7590000000000003  4.407599999999999 
C  0.6035000000000004  1.4219000000000008  3.116299999999999 
H  1.8327999999999989  1.6128999999999998  0.22489999999999988 
H  3.1738999999999997  2.8941999999999997  1.7506000000000004 
H  3.480699999999999  3.3986  3.747700000000002 
H  2.2637  2.694700000000001  5.533899999999999 
H  0.35769999999999946  1.5212000000000003  5.112200000000001 
H  -0.1208000000000009  0.9708000000000006  2.929000000000002 
4
Ligand ID: unq_CSD-PALKET-01-a  ===  Stoichiometry: CNO  ===  Charge: -1  ===  Donors: N
Cu  0.0  0.0  0.0 
O  1.8444000000000003  2.801100000000001  -2.9044999999999987 
N  0.9097  1.3545000000000007  -1.3032000000000004 
C  1.3712  2.0686  -2.0922 
18
Ligand ID: unq_CSD-OZOKIY-01-a  ===  Stoichiometry: C7H9N  ===  Charge: 0  ===  Donors: N
Cu  0.0  0.0  0.0 
N  1.9120999999999997  0.5932000000000004  0.7419000000000002 
C  2.2382  1.9050000000000002  0.8115000000000001 
C  3.5152  2.3061999999999996  1.169 
H  3.7340999999999998  3.229400000000001  1.2050999999999998 
C  4.4648  1.3568000000000007  1.4714999999999998 
H  5.346299999999999  1.6178  1.7102 
C  4.123200000000001  0.029000000000000803  1.4242 
H  4.768699999999999  -0.6340999999999992  1.6418 
C  2.8437  -0.3451999999999993  1.06 
C  1.1639  2.9051  0.5100000000000002 
H  1.5217999999999998  3.8114  0.6148000000000002 
H  0.4145000000000003  2.776700000000001  1.1292 
H  0.8511999999999995  2.7809  -0.4103999999999999 
C  2.4345  -1.7811999999999992  0.9944999999999999 
H  3.1338999999999997  -2.3386999999999993  1.3938000000000001 
H  2.3021000000000003  -2.0404999999999998  0.0596000000000001 
H  1.5969999999999995  -1.9044999999999996  1.4882 
13
Ligand ID: unq_CSD-PALPOH-02-a  ===  Stoichiometry: C6H4S2  ===  Charge: -2  ===  Donors: S-S
Cu  0.0  0.0  0.0 
S  -2.1134  -1.0499  0.3019 
S  -0.7616  0.41969999999999974  -2.1892 
C  -2.7982  -1.2122000000000002  -1.3198 
C  -3.9775  -1.9829000000000003  -1.5013 
C  -4.444  -2.1233  -2.8046 
C  -3.8711  -1.5148000000000001  -3.8439 
C  -2.7764  -0.7239000000000004  -3.6526 
C  -2.2369  -0.5381999999999998  -2.3773 
H  -4.4386  -2.3573  -0.7688 
H  -5.1919  -2.6833  -2.9696 
H  -4.259  -1.6069000000000004  -4.7101 
H  -2.3752  -0.29800000000000004  -4.4032 
2
Ligand ID: unq_CSD-OZODUD-01-a  ===  Stoichiometry: I  ===  Charge: -1  ===  Donors: I
Cu  0.0  0.0  0.0 
I  2.4468  1.6701000000000006  -0.08729999999999993 
2
Ligand ID: unq_CSD-OZOCUD-01-a  ===  Stoichiometry: Cl  ===  Charge: -1  ===  Donors: Cl
Cu  0.0  0.0  0.0 
Cl  -2.0484  1.0542000000000007  0.33369999999999944 
14
Ligand ID: unq_CSD-PAHMER-01-f  ===  Stoichiometry: C7H5N  ===  Charge: 0  ===  Donors: N
Cu  0.0  0.0  0.0 
N  1.9315000000000002  -0.7756999999999998  0.2616999999999998 
C  2.9214  -1.2778999999999998  0.47129999999999983 
C  4.1442  -1.9343  0.7983999999999996 
C  4.0899  -3.1959  1.3555999999999995 
H  3.2667  -3.6376  1.4603999999999995 
C  5.2743  -3.8011999999999997  1.7568999999999995 
H  5.2631  -4.6640999999999995  2.1287 
C  6.441  -3.1409000000000002  1.6073 
H  7.2361  -3.5421  1.9050999999999996 
C  6.4948  -1.9161  1.0411999999999995 
H  7.3243  -1.4866  0.9363999999999995 
C  5.3484  -1.2927  0.6168999999999998 
H  5.3856  -0.44609999999999994  0.2105999999999999 
16
Ligand ID: unq_CSD-PALTOM-01-b  ===  Stoichiometry: C5H9N  ===  Charge: 0  ===  Donors: N
Cu  0.0  0.0  0.0 
N  -1.5557  -0.8734000000000002  1.2818000000000005 
C  -2.425  -1.3948999999999998  1.8045000000000009 
C  -3.5398  -2.0995999999999997  2.4665 
C  -2.9299  -3.0886000000000005  3.464600000000001 
C  -4.4253  -1.0610999999999997  3.172699999999999 
C  -4.34  -2.8226000000000004  1.3760000000000012 
H  -3.6496  -3.5387000000000004  3.8545000000000016 
H  -2.4455999999999998  -2.6224  4.141400000000001 
H  -2.3075  -3.7362  3.0515000000000008 
H  -5.1434  -1.5817000000000005  3.6027000000000022 
H  -3.9428  -0.5978000000000003  3.8523999999999994 
H  -4.7451  -0.3612000000000002  2.564399999999999 
H  -5.0877  -3.2984999999999998  1.7861000000000011 
H  -3.799  -3.4568000000000003  0.9130000000000003 
H  -4.689299999999999  -2.199  0.7643000000000022 
23
Ligand ID: unq_CSD-PAHNES-01-c  ===  Stoichiometry: C8H11O2P  ===  Charge: 0  ===  Donors: P
Cu  0.0  0.0  0.0 
P  2.0981000000000005  1.0446999999999997  -0.11819999999999986 
O  1.9710999999999999  2.6193999999999997  0.13790000000000013 
C  3.0894000000000013  3.4611  0.5427 
H  2.962300000000001  3.7481999999999998  1.4596 
H  3.1348000000000003  4.2379  -0.035800000000000054 
H  3.9151000000000007  2.9563999999999995  0.4728000000000012 
O  3.2426000000000013  0.5459999999999998  0.9009 
C  3.0618999999999996  0.42510000000000003  2.3032000000000004 
H  2.7070000000000007  1.2563  2.6560000000000024 
H  3.9146  0.23319999999999963  2.724 
H  2.440100000000001  -0.2957000000000001  2.4876000000000005 
C  3.0845000000000002  0.8451999999999997  -1.6207999999999991 
C  3.426  -0.43020000000000014  -2.0093999999999994 
H  3.152700000000001  -1.1647  -1.4918999999999993 
C  4.1683  -0.6403000000000001  -3.157399999999999 
H  4.3949  -1.5168000000000001  -3.4117999999999995 
C  4.5801  0.42510000000000003  -3.9346999999999994 
H  5.0817  0.27549999999999963  -4.7155999999999985 
C  4.2532  1.7050999999999998  -3.5603999999999996 
H  4.5512  2.4364999999999997  -4.0672 
C  3.4692000000000007  1.9135999999999997  -2.4105999999999987 
H  3.2045000000000012  2.7855999999999996  -2.1777999999999995 
16
Ligand ID: unq_CSD-PALJEU-02-a  ===  Stoichiometry: C7H6S2  ===  Charge: -2  ===  Donors: S-S
Cu  0.0  0.0  0.0 
S  -0.6563999999999997  -1.9399  -1.1699000000000002 
S  -1.7094999999999998  -0.5312000000000001  1.4788 
C  -2.5078  -1.9361  0.831 
C  -3.6245  -2.4581  1.4904 
H  -3.9473  -2.0274  2.2481 
C  -4.2607  -3.6076  1.0408 
H  -4.9912  -3.9512  1.5018 
C  -3.7998  -4.2325  -0.09660000000000002 
C  -2.7328  -3.7284  -0.7730000000000001 
H  -2.4486  -4.1513  -1.5507999999999997 
C  -2.0410999999999997  -2.5708  -0.31919999999999993 
C  -4.5259  -5.486000000000001  -0.5061 
H  -4.1357  -5.8332  -1.311 
H  -5.452  -5.2844  -0.6602999999999999 
H  -4.454  -6.1403  0.19309999999999983 
15
Ligand ID: unq_CSD-OZOYEI-01-c  ===  Stoichiometry: C4H9N  ===  Charge: -2  ===  Donors: N
Cu  0.0  0.0  0.0 
N  -0.6103000000000001  -0.07249999999999979  1.8309000000000002 
C  -0.9864000000000002  -0.15680000000000005  3.1536999999999997 
C  -0.7770000000000001  1.181  3.8555 
H  0.10550000000000015  1.5069  3.6679000000000004 
H  -0.8809999999999998  1.0644999999999998  4.8031 
H  -1.4255999999999998  1.814  3.5383000000000004 
C  0.015499999999999847  -1.1622999999999997  3.9135999999999997 
H  -0.008500000000000174  -2.0218  3.4857000000000005 
H  -0.25729999999999986  -1.2543  4.83 
H  0.9081000000000001  -0.8127  3.8785 
C  -2.3588  -0.6414  3.3791 
H  -2.9763  -0.09689999999999976  2.8864 
H  -2.5656999999999996  -0.5920999999999998  4.3158 
H  -2.4288  -1.553  3.0848000000000004 
8
Ligand ID: unq_CSD-PAGBOP-01-a  ===  Stoichiometry: F6P  ===  Charge: -1  ===  Donors: F
Cu  0.0  0.0  0.0 
P  -2.8136999999999994  2.3863  2.351000000000001 
F  -3.4383999999999997  1.9777999999999998  0.9597999999999995 
F  -4.249599999999999  2.7731  2.8699000000000012 
F  -2.5898999999999996  3.842  1.8192000000000004 
F  -1.3788  1.9929999999999999  1.8143000000000011 
F  -2.1680999999999995  2.7788  3.720600000000001 
F  -3.0496999999999996  0.94  2.882200000000001 
21
Ligand ID: unq_CSD-OZOZIN-01-a  ===  Stoichiometry: C8H11N  ===  Charge: 0  ===  Donors: N
Cu  0.0  0.0  0.0 
C  2.7542  1.219899999999999  -0.5569999999999995 
C  3.8844000000000003  1.9636999999999993  -0.30299999999999905 
H  4.645900000000001  1.875  -0.8642999999999992 
C  3.9151000000000007  2.8476  0.7729999999999997 
C  2.7780000000000005  2.9313000000000002  1.5509000000000004 
H  2.7657000000000007  3.5107  2.3038000000000007 
C  1.6533000000000007  2.1793999999999993  1.2447 
C  2.692  0.2836999999999996  -1.7316999999999991 
H  2.1427000000000005  -0.4946999999999999  -1.500399999999999 
H  3.5969000000000007  -0.01240000000000041  -1.961899999999999 
H  2.2942  0.7471999999999994  -2.4981999999999998 
C  5.1477  3.6569000000000003  1.064400000000001 
H  4.9687  4.2684  1.8094000000000001 
H  5.395  4.1745  0.2696000000000005 
H  5.884500000000001  3.0565999999999995  1.3048000000000002 
C  0.40470000000000006  2.291499999999999  2.0622000000000007 
H  -0.3410999999999995  2.5603  1.485100000000001 
H  0.5331000000000001  2.9635  2.764100000000001 
H  0.20360000000000067  1.4253  2.4726999999999997 
N  1.6537000000000006  1.3001000000000005  0.20950000000000024 
16
Ligand ID: unq_CSD-PAJLER-01-a  ===  Stoichiometry: C5H9N  ===  Charge: 0  ===  Donors: C
Cu  0.0  0.0  0.0 
N  -2.1637  0.0  2.3502 
C  -1.3736  0.0  1.5359999999999996 
C  -3.1532999999999998  0.0  3.4241 
C  -4.504099999999999  0.0  2.7786 
C  -2.9446  1.2508  4.2216 
H  -5.1884  0.0  3.4408000000000003 
H  -4.606199999999999  0.7752999999999997  2.2333 
H  -3.6441999999999997  1.3477999999999994  4.8504 
H  -2.9343  2.0003  3.6337 
H  -2.1129  1.2005  4.6779 
C  -2.9446  -1.2508000000000001  4.2216 
H  -4.606199999999999  -0.7753000000000001  2.2333 
H  -3.6441999999999997  -1.3478  4.8504 
H  -2.9343  -2.0003  3.6337 
H  -2.1129  -1.2005000000000003  4.6779 
2
Ligand ID: unq_CSD-PAFWIC-01-c  ===  Stoichiometry: S  ===  Charge: -2  ===  Donors: S
Cu  0.0  0.0  0.0 
S  1.1374  1.7641  -0.05850000000000044 
13
Ligand ID: unq_CSD-PAFWIC-02-a  ===  Stoichiometry: C3H6NS2  ===  Charge: -1  ===  Donors: S-S
Cu  0.0  0.0  0.0 
S  0.40470000000000006  -0.5143  2.404399999999999 
S  -1.7263000000000002  1.0789  1.5732 
C  -1.1277000000000001  0.3772  2.9586000000000006 
N  -1.5467000000000002  0.3359000000000001  4.1592 
C  -0.9362000000000001  -0.2831999999999999  5.2675 
C  -2.4446000000000003  1.1945000000000001  4.359299999999999 
H  -0.22029999999999994  -0.6760999999999999  4.856499999999999 
H  -1.6054000000000002  -0.9518  5.7646999999999995 
H  -0.6453000000000002  0.46799999999999997  6.007900000000001 
H  -2.4015  1.8862  4.898100000000001 
H  -3.248  0.6678  5.044299999999998 
H  -2.9535  1.5139  3.5634999999999994 
15
Ligand ID: unq_CSD-PAFLIT-01-a  ===  Stoichiometry: C3H9NSi  ===  Charge: -2  ===  Donors: N
Cu  0.0  0.0  0.0 
Si  3.423  -1.1266999999999998  -0.6210000000000004 
N  1.8033  -0.6300999999999999  -0.3091000000000008 
C  3.4996  -2.8882000000000003  -1.213 
H  3.0368000000000004  -2.9633000000000003  -2.0739 
H  3.0666  -3.4736000000000002  -0.5553000000000008 
H  4.435700000000001  -3.1559  -1.3212000000000002 
C  4.4527  -1.0214  0.9456999999999995 
H  4.1097  -1.6603999999999999  1.6056999999999988 
H  4.398000000000001  -0.11359999999999992  1.3121 
H  5.385800000000001  -1.2340000000000002  0.7382 
C  4.1969  -0.03259999999999996  -1.9282000000000004 
H  3.5887000000000002  0.04360000000000008  -2.6919000000000004 
H  5.0455000000000005  -0.42490000000000006  -2.224 
H  4.3627  0.8573999999999999  -1.5529000000000002 
7
Ligand ID: unq_CSD-PAFKOY-01-a  ===  Stoichiometry: C2H3N  ===  Charge: 0  ===  Donors: C
Cu  0.0  0.0  0.0 
N  -0.5288999999999997  -3.7537000000000003  0.2981999999999978 
C  -0.28359999999999985  -2.658  0.10389999999999944 
C  -0.8347  -5.1237  0.6097999999999999 
H  -0.15510000000000002  -5.7076  0.21369999999999933 
H  -1.7143  -5.3524  0.24540000000000006 
H  -0.8419999999999999  -5.2432  1.5829999999999984 
21
Ligand ID: unq_CSD-PAFJOZ-01-b  ===  Stoichiometry: C9H11  ===  Charge: -1  ===  Donors: C
Cu  0.0  0.0  0.0 
C  -1.0350000000000001  -0.8797999999999995  1.4596 
C  -1.3796999999999997  -0.1504999999999992  2.6109999999999998 
C  -1.9527  -0.8206000000000007  3.6856 
H  -2.1657  -0.33389999999999986  4.4615 
C  -2.2198  -2.1708999999999996  3.6555999999999997 
C  -1.8979  -2.8656000000000006  2.5125 
H  -2.0812  -3.787000000000001  2.4707999999999997 
C  -1.3056  -2.2431  1.4112 
C  -1.1348000000000003  1.3313000000000006  2.6927000000000003 
H  -0.18200000000000038  1.4974000000000007  2.7595 
H  -1.5814000000000004  1.6908999999999992  3.4753 
H  -1.4831000000000003  1.7601999999999993  1.8951000000000002 
C  -2.8808  -2.8771000000000004  4.835299999999999 
H  -2.6124  -2.4452999999999996  5.6613 
H  -2.6056  -3.8072  4.851999999999999 
H  -3.8444000000000003  -2.826599999999999  4.7419 
C  -0.9473000000000003  -3.0562000000000005  0.1947000000000001 
H  -1.3710000000000004  -2.6706000000000003  -0.5878999999999999 
H  -1.2567000000000004  -3.9674999999999994  0.31320000000000014 
H  0.015399999999999636  -3.0533  0.07620000000000005 
13
Ligand ID: unq_CSD-PAFJAH-01-a  ===  Stoichiometry: C6H5N  ===  Charge: -2  ===  Donors: N
Cu  0.0  0.0  0.0 
N  -0.17959999999999976  -0.5913  1.6265 
C  -0.11109999999999998  -1.2596  2.8286 
C  1.1497000000000002  -1.5798  3.3719 
C  1.2149999999999999  -2.3552  4.506100000000001 
C  0.05719999999999992  -2.7813  5.136500000000001 
C  -1.1616  -2.4435000000000002  4.612699999999999 
C  -1.263  -1.6887  3.4744 
H  1.9531999999999998  -1.2586  2.9547 
H  2.0700000000000003  -2.6048  4.864 
H  0.10939999999999994  -3.3093  5.9369000000000005 
H  -1.9622  -2.7406  5.052499999999999 
H  -2.1256999999999997  -1.4572  3.1227 
9
Ligand ID: unq_CSD-PAJWUS-02-a  ===  Stoichiometry: C4N2S2  ===  Charge: -2  ===  Donors: S-S
Cu  0.0  0.0  0.0 
S  -1.9802  -0.1213  -0.9171 
S  -0.6713  -1.2753  1.6655 
C  -2.9091  -0.9565  0.2419 
C  -2.3633  -1.4503  1.3682 
C  -3.1055  -2.1867  2.3735 
C  -4.2988  -1.1183  -0.0202 
N  -3.6315  -2.8448  3.1546 
N  -5.4337  -1.2564  -0.2091 
11
Ligand ID: unq_CSD-PAGFIQ-01-a  ===  Stoichiometry: C5F4N  ===  Charge: -1  ===  Donors: C
Cu  0.0  0.0  0.0 
C  1.5804999999999998  -1.0238000000000014  -0.03279999999999994 
F  1.8669000000000002  -0.9411000000000005  -2.3724 
N  3.8698000000000006  -2.7387000000000015  -0.04019999999999957 
C  2.261499999999999  -1.394400000000001  -1.1703000000000001 
F  3.9658000000000007  -2.584100000000001  -2.2868999999999997 
C  3.3610999999999995  -2.2288000000000014  -1.1429 
F  3.7649  -2.8923000000000005  2.2041000000000004 
C  3.2520999999999995  -2.3773000000000017  1.0614 
F  1.6345999999999998  -1.3132000000000001  2.3264999999999993 
C  2.1522999999999994  -1.5576000000000008  1.1178 
7
Ligand ID: unq_CSD-PAFCIJ-01-b  ===  Stoichiometry: C2H3N  ===  Charge: 0  ===  Donors: N
Cu  0.0  0.0  0.0 
N  -2.0105999999999997  0.11529999999999996  0.3854999999999995 
C  -3.1150999999999995  0.10030000000000028  0.6735999999999995 
C  -4.5227  0.07170000000000032  1.0629 
H  -4.9831  0.8428  0.6066000000000003 
H  -4.7003  -0.1503000000000001  2.0469999999999997 
H  -4.9984  -0.6393  0.5378999999999996 
12
Ligand ID: unq_CSD-PAGGEN-01-c  ===  Stoichiometry: C6HF4  ===  Charge: -1  ===  Donors: C
Cu  0.0  0.0  0.0 
C  -1.6135000000000002  -0.9957999999999991  -0.015499999999999403 
C  -2.2079000000000004  -1.491999999999999  -1.1502 
F  -1.6550999999999991  -1.225999999999999  -2.3554000000000013 
F  -3.8735  -2.742799999999999  -2.2894000000000005 
C  -3.3733000000000004  -2.2805999999999997  -1.1274000000000015 
C  -3.9733  -2.6034999999999986  0.05799999999999983 
H  -4.7547  -3.1430999999999996  0.0840999999999994 
F  -3.976099999999999  -2.434899999999999  2.4019999999999975 
C  -3.4116  -2.1252999999999993  1.198599999999999 
F  -1.8203999999999994  -0.8971999999999998  2.3477999999999994 
C  -2.289299999999999  -1.3348999999999993  1.1707999999999998 
12
Ligand ID: unq_CSD-PAGGOX-01-a  ===  Stoichiometry: C6F5  ===  Charge: -1  ===  Donors: C
Cu  0.0  0.0  0.0 
C  -1.6498999999999988  1.0267999999999997  0.012299999999999756 
C  -2.249599999999999  1.3286999999999995  -1.2054 
C  -3.383099999999999  2.1301000000000005  -1.2418000000000005 
C  -3.9179999999999993  2.631500000000001  -0.06040000000000045 
C  -3.3194  2.3314000000000004  1.1572999999999993 
C  -2.1837999999999997  1.5281000000000002  1.1936999999999998 
F  -1.658199999999999  1.2913999999999994  2.3296 
F  -1.8141999999999996  0.8907000000000007  -2.3541000000000003 
F  -3.994999999999999  2.4468999999999994  -2.3936 
F  -3.806099999999999  2.8383000000000003  2.2704999999999993 
F  -4.992999999999999  3.4496  -0.0763000000000007 
13
Ligand ID: unq_CSD-PADYOJ-01-a  ===  Stoichiometry: C6H5S  ===  Charge: -1  ===  Donors: S
Cu  0.0  0.0  0.0 
S  -1.1448000000000003  1.9291999999999998  -0.6484000000000005 
C  -1.2813  3.1643999999999997  0.6222999999999992 
C  -1.6304  2.8745000000000003  1.9291 
C  -1.7321000000000002  3.8821000000000003  2.8737999999999992 
C  -1.5118000000000003  5.1809  2.5340000000000007 
C  -1.1847  5.5083  1.2521000000000004 
C  -1.0628  4.5084  0.2826000000000004 
H  -1.8020000000000003  1.9741999999999997  2.181800000000001 
H  -1.9598000000000002  3.6643  3.7711000000000006 
H  -1.5854000000000001  5.8619  3.1911000000000005 
H  -1.0393999999999999  6.417199999999999  1.0168999999999997 
H  -0.8303  4.7392  -0.6097999999999999 
17
Ligand ID: unq_CSD-PADSIW-02-a  ===  Stoichiometry: C6H8N2  ===  Charge: 0  ===  Donors: N-N
Cu  0.0  0.0  0.0 
N  0.4626999999999999  -1.5289000000000001  1.3351000000000002 
N  1.3781999999999996  1.0572  1.1831 
C  1.6060999999999996  -1.1661000000000001  2.1648 
C  2.2192  -2.1086  3.0036 
C  3.2709  -1.6446  3.8131 
C  3.6996  -0.3561  3.7783 
C  3.0669000000000004  0.5438  2.9778999999999995 
C  2.0591999999999997  0.13259999999999994  2.1519 
H  0.6733000000000002  -2.3153  0.8387999999999995 
H  -0.29549999999999965  -1.6952  1.9010000000000002 
H  0.9099000000000004  1.7288999999999999  1.6758000000000002 
H  2.0351  1.4638  0.6153 
H  1.9352999999999998  -3.0163  3.0053999999999994 
H  3.7300000000000004  -2.258  4.384499999999999 
H  4.403700000000001  -0.0707000000000001  4.362500000000001 
H  3.3476  1.4526  2.9724 
17
Ligand ID: unq_CSD-PAKHEP-01-c  ===  Stoichiometry: C4H11N  ===  Charge: 0  ===  Donors: N
Cu  0.0  0.0  0.0 
N  0.5959000000000003  2.0992999999999995  -0.4697999999999998 
H  1.4282000000000004  2.0661999999999985  -0.8209999999999997 
H  0.06160000000000032  2.1384999999999987  -1.1083999999999998 
C  0.5318000000000005  3.3491  0.3775000000000004 
C  1.6995000000000005  3.3422  1.3430000000000004 
H  1.6204999999999998  2.5909999999999993  1.9363000000000001 
H  1.6983999999999995  4.154399999999999  1.8531000000000004 
H  2.5219000000000005  3.2750999999999983  0.8503000000000003 
C  0.6326999999999998  4.5649  -0.5517999999999998 
H  1.4552999999999994  4.5222999999999995  -1.0463999999999998 
H  0.6143999999999998  5.369999999999999  -0.029999999999999805 
H  -0.10769999999999946  4.5626999999999995  -1.1627999999999998 
C  -0.8072999999999997  3.3728999999999996  1.1014000000000004 
H  -1.5192999999999994  3.3195999999999994  0.4601000000000002 
H  -0.8874999999999993  4.188699999999999  1.6006 
H  -0.8612000000000002  2.6239999999999988  1.7004000000000001 
16
Ligand ID: unq_CSD-PAGMIT-01-d  ===  Stoichiometry: C5H10  ===  Charge: -2  ===  Donors: C
Cu  0.0  0.0  0.0 
C  1.0050000000000001  -0.2431000000000001  1.5344000000000002 
C  1.4197  0.19019999999999992  2.881 
C  2.8014  0.6638000000000002  2.8150999999999997 
C  0.38939999999999997  1.3304999999999998  3.3755 
C  1.2268000000000001  -0.8975000000000004  3.8865000000000003 
H  1.5037999999999998  -1.0905  1.3976000000000002 
H  3.404  -0.00280000000000058  2.5349 
H  2.8992000000000004  1.4181999999999997  2.1557999999999997 
H  3.1201  1.0321999999999996  3.6557 
H  0.5497999999999998  1.6989  4.216100000000001 
H  0.4244999999999999  2.1549999999999994  2.7492000000000005 
H  -0.5335000000000001  1.0672999999999995  3.3096 
H  0.2558  -1.0729000000000002  3.9029000000000003 
H  1.6923000000000001  -1.6167000000000002  3.6887000000000003 
H  1.4332999999999998  -0.5291000000000001  4.76 
29
Ligand ID: unq_CSD-PAGXAW-02-a  ===  Stoichiometry: C14H12N2  ===  Charge: 0  ===  Donors: N-N
Cu  0.0  0.0  0.0 
N  -0.04610000000000003  2.2176  0.2629999999999999 
N  -0.7542  0.8929  -1.9817 
C  0.0979000000000001  2.9213000000000005  1.3934999999999995 
C  0.47950000000000004  4.2673000000000005  1.3589000000000002 
C  0.7081999999999999  4.8891  0.18369999999999997 
C  0.5143000000000002  4.2055  -1.0206 
C  0.6978000000000002  4.787  -2.3024 
C  0.4484999999999999  4.0945  -3.4311000000000003 
C  -0.03400000000000003  2.7536000000000005  -3.3701000000000003 
C  -0.38480000000000003  2.0076  -4.4979 
C  -0.9952  0.7930000000000001  -4.3567 
C  -1.2156  0.27180000000000026  -3.0722 
C  -0.21849999999999992  2.1342  -2.1275000000000004 
C  0.11010000000000009  2.8629  -0.9259000000000004 
C  -0.1592  2.2343  2.687099999999999 
C  -2.04  -0.9607999999999999  -2.8836 
H  0.5450999999999999  4.6494  2.1797000000000004 
H  0.9431999999999998  5.8353  0.1482000000000001 
H  1.0005  5.638199999999999  -2.3297 
H  0.5262999999999998  4.4758000000000004  -4.3977 
H  -0.25439999999999996  2.4077  -5.3269 
H  -1.3132  0.3411000000000004  -5.0991 
H  -0.668  1.3749000000000002  2.6898 
H  -0.4515  2.8404  3.2729 
H  0.6441999999999999  1.8294000000000006  3.0633 
H  -2.2062  -1.2811  -1.9835000000000003 
H  -2.8909000000000002  -0.8331999999999997  -3.2589 
H  -1.7397  -1.6800999999999997  -3.2954 
12
Ligand ID: unq_CSD-PAHNUJ-01-d  ===  Stoichiometry: C3H6N2  ===  Charge: 0  ===  Donors: N
Cu  0.0  0.0  0.0 
N  0.9042000000000003  -1.3981000000000001  -1.1390999999999998 
N  1.8306000000000004  -3.5551000000000004  -1.8407 
C  1.3578999999999999  -2.4024  -1.4728999999999999 
C  3.2577  -3.7314  -2.1509 
H  3.7390999999999996  -2.8993  -1.9594999999999998 
H  3.3598999999999997  -3.958  -3.0995 
H  3.6239999999999997  -4.4551  -1.6012 
C  0.923  -4.6924  -2.0255 
H  0.0011999999999998678  -4.4058  -1.8567 
H  1.1630000000000003  -5.4072000000000005  -1.3994 
H  0.9983000000000004  -5.0246  -2.9449 
14
Ligand ID: unq_CSD-PACMOV-01-b  ===  Stoichiometry: C8H5  ===  Charge: -1  ===  Donors: C
Cu  0.0  0.0  0.0 
C  -1.5982  1.5551000000000004  1.0110999999999999 
C  -2.4402999999999997  2.3042  1.4707999999999997 
C  -3.3722999999999996  3.2445000000000004  2.0465 
C  -2.9192  4.334200000000001  2.7901 
C  -3.8091999999999997  5.2425  3.3331999999999997 
C  -5.1667000000000005  5.090300000000001  3.1523 
C  -5.6469000000000005  4.009500000000001  2.4334 
C  -4.7591  3.103300000000001  1.8731999999999998 
H  -2.0336  4.444599999999999  2.9375 
H  -3.4189  5.930400000000001  3.8756999999999997 
H  -5.7860000000000005  5.7217  3.4922999999999997 
H  -6.6581  3.820500000000001  2.3196 
H  -5.1227  2.356  1.3794 
5
Ligand ID: unq_CSD-PABQAL-01-a  ===  Stoichiometry: SnCl3  ===  Charge: -1  ===  Donors: Sn
Cu  0.0  0.0  0.0 
Cl  3.3943000000000003  -2.5521000000000003  -0.1795 
Sn  1.0945  -2.2537000000000003  -0.5906000000000002 
Cl  0.2788999999999999  -4.2506  0.3279000000000001 
Cl  1.0865  -2.9614000000000003  -2.8522 
4
Ligand ID: unq_CSD-PABPUG-01-a  ===  Stoichiometry: CNS  ===  Charge: -1  ===  Donors: N
Cu  0.0  0.0  0.0 
N  -1.5583  0.7934000000000001  -0.8184000000000005 
S  -3.5803000000000003  2.3691000000000004  -1.8329000000000004 
C  -2.3930000000000002  1.4256000000000002  -1.236200000000001 
2
Ligand ID: unq_CSD-OZUJID-01-a  ===  Stoichiometry: Br  ===  Charge: -1  ===  Donors: Br
Cu  0.0  0.0  0.0 
Br  -2.0862  0.0204  1.3382999999999998 
16
Ligand ID: unq_CSD-PAHWOL-01-a  ===  Stoichiometry: C2H6NO4S2  ===  Charge: -1  ===  Donors: N
Cu  0.0  0.0  0.0 
C  0.23580000000000023  -2.6444  -2.8681 
H  0.9878999999999998  -3.2503  -2.6982999999999997 
H  0.5741000000000005  -1.7355  -3.0081999999999987 
H  -0.2474999999999996  -2.9403  -3.6685 
C  0.2998000000000003  -4.2835  1.360100000000001 
H  0.9472000000000005  -4.7442  1.9347999999999992 
H  -0.0519999999999996  -4.9112  0.6951 
H  -0.4365999999999999  -3.9409  1.9079000000000015 
N  -0.04889999999999972  -2.0937  -0.21649999999999991 
O  -1.8731999999999998  -1.6712000000000002  -1.7400000000000002 
O  -1.2961999999999998  -4.0181000000000004  -1.2899999999999991 
O  1.609  -2.0535  1.5528000000000013 
O  2.0578000000000003  -3.5132000000000003  -0.3722999999999992 
S  -0.855  -2.6599000000000004  -1.4847000000000001 
S  1.0925000000000002  -2.9428  0.539200000000001 
23
Ligand ID: unq_CSD-PALHAN-01-b  ===  Stoichiometry: C10H12  ===  Charge: -2  ===  Donors: C
Cu  0.0  0.0  0.0 
C  1.2728000000000002  1.3896000000000002  0.10219999999999985 
H  0.8515000000000001  2.1200999999999994  0.5381999999999998 
C  2.6921999999999997  1.8234999999999997  -0.22420000000000062 
C  2.6308  3.1321  -1.0313000000000008 
H  2.1231999999999998  2.9842  -1.8555000000000006 
H  3.5407  3.4213999999999998  -1.2543000000000006 
H  2.1905  3.8261999999999996  -0.4959000000000007 
C  3.3815999999999997  0.7721999999999998  -1.0867000000000004 
H  2.875  0.6475  -1.9158000000000004 
H  3.4215  -0.07560000000000011  -0.5972000000000008 
H  4.2903  1.0704999999999996  -1.2996000000000008 
C  3.4574  2.1703999999999994  1.0690999999999997 
C  2.9127  3.1381  1.9061999999999992 
H  2.0823  3.5422  1.6865999999999994 
C  3.5835  3.512  3.0647 
H  3.2115  4.172699999999999  3.6365 
C  4.7999  2.9198  3.3858999999999995 
H  5.2583  3.1755999999999998  4.177299999999999 
C  5.3445  1.9529  2.5488999999999997 
H  6.175000000000001  1.5479999999999996  2.7682 
C  4.6728  1.5782000000000003  1.3905999999999992 
H  5.0458  0.9175  0.8182999999999998 
21
Ligand ID: unq_CSD-PAHQOF-02-a  ===  Stoichiometry: C6H10N4  ===  Charge: 0  ===  Donors: N-N
Cu  0.0  0.0  0.0 
N  1.8495999999999997  -2.2719  0.09340000000000082 
N  0.5575999999999999  -1.9897  -0.29320000000000057 
N  1.9371  -0.08169999999999966  0.7646999999999995 
N  3.8553999999999995  -1.4164000000000003  0.9824999999999999 
C  2.5814000000000004  -1.1920000000000002  0.6479999999999997 
C  -1.3617999999999997  -3.2201  -1.2157999999999998 
C  0.04269999999999996  -3.1341  -0.7204999999999995 
C  1.0000999999999998  -4.1655999999999995  -0.6290999999999993 
C  2.1392000000000007  -3.5974000000000004  -0.11790000000000056 
C  3.4459999999999997  -4.261  0.1274999999999995 
H  2.365499999999999  0.43409999999999993  1.0690000000000008 
H  0.8864000000000001  -5.055  -0.8710000000000004 
H  -1.5602999999999998  -4.0763  -1.5060000000000002 
H  -1.9870999999999999  -3.0037000000000003  -0.5196000000000005 
H  -1.5088999999999997  -2.6483  -1.9897 
H  3.351800000000001  -5.1392  -0.17419999999999902 
H  3.6692  -4.2283  1.0272000000000006 
H  4.1591000000000005  -3.8402000000000003  -0.40809999999999924 
H  4.16  -2.1956  1.0073000000000008 
H  4.262700000000001  -0.8003999999999998  1.3178 
