4
Ligand ID: unq_CSD-PAFWIF-01-b  ===  Stoichiometry: N3  ===  Charge: -1  ===  Donors: N
Cu  0.0  0.0  0.0 
N  1.4777  1.2372999999999994  -0.7157 
N  1.1927  2.199  -1.1711999999999998 
N  0.9537  3.220700000000001  -1.6050000000000004 
23
Ligand ID: unq_CSD-PAHWEB-02-a  ===  Stoichiometry: C10H8N4  ===  Charge: 0  ===  Donors: N-N
Cu  0.0  0.0  0.0 
C  -1.6281999999999996  -2.2886  0.42459999999999987 
C  -2.2521999999999998  -3.3753  1.0031999999999996 
H  -2.8061999999999996  -3.9335000000000004  0.5068000000000001 
C  -2.0241  -3.6069000000000004  2.3537 
H  -2.4266999999999994  -4.3273  2.7818000000000005 
C  -1.2025999999999994  -2.7645000000000004  3.0433000000000003 
H  -1.0401999999999996  -2.9079  3.9486000000000008 
C  -0.6130999999999993  -1.6976000000000002  2.3932 
H  -0.04789999999999939  -1.1346000000000003  2.871500000000001 
C  -1.282  -0.9583000000000004  -2.8431999999999995 
C  -2.1524999999999994  -1.7124000000000001  -3.6064999999999996 
H  -2.6863999999999995  -2.3718000000000004  -3.2253999999999996 
C  -2.1971999999999996  -1.4450000000000003  -4.9613 
H  -2.7464999999999997  -1.9491000000000003  -5.5175 
C  -1.4305999999999992  -0.4365000000000001  -5.4864999999999995 
H  -1.4726  -0.2320000000000002  -6.3929 
C  -0.5976999999999997  0.2669999999999999  -4.6442 
H  -0.08000000000000007  0.9533999999999998  -4.9986999999999995 
N  -0.8281000000000001  -1.4495000000000002  1.1004000000000005 
N  -1.8189999999999995  -2.0836  -0.9589999999999996 
N  -1.1041999999999996  -1.1687000000000003  -1.4318999999999997 
N  -0.5061  -0.00020000000000042206  -3.3332999999999995 
