53

Ru  0.0  0.0  0.0 
N  1.948865964563366  0.018677316042558012  -9.182213068465722e-16 
N  0.17166920741955238  1.9545960814863743  -1.044280676335063e-15 
N  0.27946482801708195  -1.9732733975289323  1.9625019831816353e-15 
C  1.7541270340183892  3.7263108140319754  -0.07162020327356522 
H  2.654081465106052  4.017410872859601  -0.16698999784309848 
C  -0.2930111442988148  -4.2639367407947475  0.2980751733023804 
H  -0.9363130396606769  -4.9155796634317195  0.5470883512688921 
C  -0.6077608602160196  -2.9280681797153645  0.3405612163016574 
H  -1.4791631796445948  -2.668890350200958  0.617478587339843 
C  1.9007648741992966  -3.6622818538410145  -0.4322260574697286 
H  2.78157401747194  -3.8995762615988316  -0.6991375543636948 
C  0.968648609906998  -4.6500513079704024  -0.11001742113187596 
H  1.1962257100091527  -5.570062579874129  -0.17018537837808187 
C  2.4543754190274623  1.3077920339356923  -0.4873606627116255 
H  2.5951714426618286  1.268195721969222  -1.4664126132267166 
H  3.3213810089028444  1.5160921289345868  -0.056438561226575076 
C  1.526813121322883  -2.335669692575549  -0.357525454371558 
C  2.4559328317183904  -1.1926768946282578  -0.673886510121454 
H  3.369655481138663  -1.4003448286850209  -0.3546313471232787 
H  2.4927517684785476  -1.0458251361318422  -1.6519937777165585 
C  1.448362317358645  2.373806499473906  -0.1578658243090133 
C  -0.8107622574789273  2.8556680466968904  0.19229623056390424 
H  -1.7058620343531887  2.5485767361558738  0.2781822389112963 
C  -0.5612682307070365  4.211410179143266  0.26857310068124884 
H  -1.2689709600538415  4.83094934359166  0.3976640786373643 
C  0.7483109931453136  4.646241668397581  0.15164559148366297 
H  0.9537218642698482  5.570820698259024  0.22535062227757527 
H  2.2235826732084325  -0.04622386085881875  0.8556651840691166 
S  0.6736984766313364  -1.0831390002892777e-15  -1.9823507775075069 
S  -2.0336984766313364  -1.301426517932617e-16  -0.497649222492493 
S  -3.6437604519185633  -0.11951315703010183  -6.666354613498877 
N  -2.0597117901020354  -0.1216130124041938  -6.349436725703471 
N  -4.242346906125574  -0.061218484847543275  -5.160610001011438 
C  -2.0505496700111165  -0.018196630223030672  -2.242410882413485 
C  -0.7866448455421624  -0.024432931072839836  -2.93105513254256 
C  -0.7480806728709191  -0.059187519349002  -4.296336053518147 
H  0.07090639450022018  -0.06926697339289394  -4.737346482062591 
C  -1.927949712001592  -0.0797674021199037  -5.028273666246193 
C  -3.1853575795028988  -0.04766010142917675  -4.34412840682523 
C  -3.21949572202497  -0.03348721010645183  -2.950933080829371 
H  -4.035951334475415  -0.03348608178193443  -2.50603947231503 
C  0.0  0.0  2.0 
C  -0.9124865147059713  -0.7122092913744189  2.739727095461359 
F  -1.8448270039732542  -1.4547529731920066  2.100805368905101 
F  -1.8451953647226929  -1.4653104244205368  4.788969278441482 
C  -0.9262182873657996  -0.7187232041470502  4.146971199147713 
C  -0.00028270141310473423  -0.005375990368315348  4.856348823026956 
H  0.004356452228095081  -0.011184858960140327  5.806285697402919 
F  1.8609650532354254  1.4290797311227512  4.826965513183806 
C  0.9143019419953454  0.7124643534860439  4.153931097754812 
F  1.8406972483717037  1.4891023010794084  2.1792329120358342 
C  0.9086891763502485  0.7369103567742636  2.7811845152476664 
