78

Ru  0.0  0.0  0.0 
N  1.7992451915448706  -0.010555696566785733  1.8249290967276007e-15 
N  3.8538740897341563  0.9388422764966646  -0.2719940430753784 
N  0.47389410356346606  2.2402565931603045  -1.6930901125533635e-15 
O  0.12686070489166346  -2.229700896593518  -1.3877787807814454e-16 
O  4.444747281948394  -5.4221420611069755  -0.2669564361337832 
C  2.709433390272805  -1.0280810632981847  -0.09512996875080755 
C  2.4835672093569894  -2.401705733256715  -0.06549089994260839 
C  1.126756999067623  -2.942839622542069  0.010008418739305107 
C  0.9970403015806674  -4.419236699859704  0.12370014438818751 
C  -0.26673586206627653  -4.968964328903558  0.3053573822391337 
H  -1.0267748681766702  -4.400712448379853  0.35825662109942974 
C  -0.4231046881004956  -6.3392990510783696  0.4097506743931842 
H  -1.2848215668594  -6.7176329248899025  0.543555722088583 
C  0.6898932445172143  -7.151168191576812  0.31702246565914 
H  0.5908068258937137  -8.093842821714052  0.38129915925788177 
C  1.9527431527715546  -6.608779687909043  0.1304398557753636 
H  2.7062763460373493  -7.182808436717648  0.06532087092548085 
C  2.122064882840788  -5.246894077475565  0.039477304026892056 
C  3.4822887467721424  -4.684411495636987  -0.14628021296734817 
C  3.623657688689902  -3.1997244978675448  -0.18282116144174332 
C  4.911812058728942  -2.6637876357289865  -0.3056967031512176 
H  5.6614355117717565  -3.24619408379946  -0.3534370204323099 
C  5.103820705097963  -1.2740701001337418  -0.3591018618778566 
H  5.9738888950205755  -0.9087840761127717  -0.4654502306464456 
C  3.9959154106875205  -0.4444910049799832  -0.2536908875859141 
C  2.5445689398559823  1.1096970727248898  -0.12088135959611608 
C  1.8114484618411322  2.3735985850035966  -0.09365394740045464 
C  -0.2697922517948885  3.3812495455847227  0.023052708552677572 
C  0.31758233986504064  4.6352880262664495  -0.0914492042776154 
H  -0.23301690972351374  5.409806062920423  -0.08489121295465087 
C  1.7102719914971491  4.780888179822922  -0.2154731516473296 
C  2.469079032873319  3.6059586824969623  -0.2231790111912919 
H  3.414057019093387  3.642471874881036  -0.3135124620353134 
C  -1.7542556240017857  3.24972719395457  0.13283552869227971 
H  -2.1110541885158023  2.8677596706774056  -0.695697998403784 
H  -2.1511739650085797  4.133557353398063  0.28262064087136557 
H  -1.9757245582781449  2.6612912772669803  0.8852277821761443 
C  2.3808177496474885  6.112573662342343  -0.38451486801817064 
H  2.9806771042249114  6.274131198652537  0.37291746373651286 
H  1.7009374669727317  6.817536459507584  -0.41995941404509946 
H  2.8971931136737465  6.11502758555229  -1.217210365596745 
O  -1.969395674505514  0.0  -0.030604325494486107 
O  5.394060081272302  0.930148712909395  -5.088778386810996 
O  5.463389167855444  -1.1760762340976456  -4.8399263617860795 
O  -0.9279744398936614  0.22136696160798355  -4.018649332814234 
N  -2.4011863063935905  0.022713628818303844  -2.2998599129679755 
N  -0.030604325494486107  0.0  -1.969395674505514 
N  4.91985200743773  -0.10550192224883626  -4.688806482039549 
C  -1.118976038362963  0.09511729105490978  -2.6889151638663966 
C  -2.7293973924729515  -0.0810982231681919  -1.0299015820130686 
C  -4.178706770593647  -0.30992493277326627  -0.7589886929458693 
C  -5.100682143604831  -0.3228172568395041  -1.804940857024653 
H  -4.82338800449578  -0.18505487066194987  -2.6814824677713682 
C  -6.436869558393494  -0.5448513401725441  -1.5172588999977414 
H  -7.061127292937966  -0.5289140949449048  -2.2077632990249874 
C  -6.855049425875155  -0.788290086864709  -0.2315430740696487 
H  -7.753500424402835  -0.9526875352118954  -0.05335718175044857 
C  -5.932186299432572  -0.7851546079407548  0.7913243360205382 
H  -6.206394178876086  -0.9482355855565157  1.664015761205284 
C  -4.59729475298601  -0.5408401247093436  0.523841995465465 
H  -3.9807802627454922  -0.532458096220146  1.2185624463821487 
C  1.2149575750542059  0.00010773291600298107  -2.6956983801972694 
C  1.7205481067414026  1.131277730694505  -3.279666949894291 
H  1.2433591524936518  1.9273166849777204  -3.227067946028871 
C  2.9303573512299774  1.1020930614245952  -3.942372621387638 
H  3.2661255599977386  1.8701573667010618  -4.34799163344344 
C  3.624815104103586  -0.06873180240737614  -3.9951977830674386 
C  3.1554274259060966  -1.2084076137107802  -3.394075072894074 
H  3.649813386119132  -1.9955337554171748  -3.4270140981786144 
C  1.9498951335414336  -1.1749411331190276  -2.7434596359862615 
H  1.6235686493771606  -1.9425056595697119  -2.332348442429657 
C  -2.1601750072609525  0.41715061936465053  -4.936960228499982 
H  -1.8711458664860265  0.4904415069219915  -5.849410551303343 
H  -2.6238882420998193  1.2180785828666538  -4.682725035979691 
H  -2.7488832212528456  -0.33606176837037016  -4.847538487625576 
O  0.0  0.0  1.88 
H  -0.6511917182125614  0.10287963460190092  2.323400729493708 
