109

Ru  0.0  0.0  0.0 
O  0.16228675142625315  1.9720485598974273  -8.540423404737198e-15 
O  0.15709917537959972  -1.9914790909528546  9.375470226972342e-15 
O  4.050481811284113  -5.6389864939606404  0.7902798399558482 
N  2.0806140731941474  0.019430531055427164  -8.905579734664015e-16 
N  4.256517539698935  0.6851338432882291  0.15018340299355729 
C  1.1747044604811991  2.8091581472195997  0.00033347449388256305 
C  0.8813373402368629  4.18627093538822  -0.016399469717873108 
H  -0.006647365619073753  4.456774664045161  -0.06360873733173321 
C  1.860155184366196  5.134506661002872  0.03503987983144655 
H  1.62968406728635  6.035607405356256  0.03437450944942239 
C  3.1921481733008417  4.7696114862174905  0.08787404346914193 
H  3.8580037212474814  5.416541029690933  0.11677707185586716 
C  3.51062842329753  3.445578184875336  0.096226725615747 
H  4.406324146998423  3.2000023404700246  0.14217076971888593 
C  2.5369715238172685  2.446690300255366  0.03793876756328699 
C  2.9717729041534158  1.0587165683083941  0.04681677876928234 
C  2.848679990906814  -1.0977732809091585  0.124762689054046 
C  4.198269047512599  -0.6766123224939896  0.2200714787679193 
C  5.1943146675337735  -1.6294060721704047  0.4224493516053267 
H  6.086195457929019  -1.3784655191602835  0.48851337039714954 
C  4.829697537820008  -2.9396524204701606  0.5178961194209487 
H  5.494878008689992  -3.574658853120492  0.6598090915760333 
C  3.5068661764986073  -3.376266438123097  0.41502897649607945 
C  2.4740060123295873  -2.433310642205942  0.20761880746141112 
C  1.0825411096911883  -2.8317296716941165  0.1317158979834967 
C  0.7516932061555923  -4.264302387598455  0.21904360476988363 
C  -0.5600978302445441  -4.6940743620354  0.10028188194294076 
H  -1.2376932530528986  -4.071808076784287  -0.0404114129539597 
C  -0.8719110377447075  -6.03794593162848  0.18888903779331803 
H  -1.7559216045085633  -6.316947433667109  0.11183671978772286 
C  0.1217999616257579  -6.960530622211672  0.3902122566024501 
H  -0.08917364712638065  -7.865046176074823  0.45033578968006566 
C  1.4341273605088982  -6.552973858611537  0.5059845442381131 
H  2.1014867296381787  -7.185695113108098  0.6402515787017715 
C  1.7694708263055259  -5.215583322397597  0.42299994570982324 
C  3.184155611516923  -4.805919535960698  0.5591348441509144 
O  0.4454526198156917  1.864930019395931e-15  -1.857183694737636 
O  -4.262970344419667  0.22716803842094258  -2.042352083457966 
N  -1.80545261981569  -2.1591793611673885e-16  -0.6228163052623635 
C  -1.8668001721717873  0.08693183105278991  -1.9806994941154243 
C  -0.5868694121988732  0.09493821364127716  -2.6427145902522056 
C  -0.5433980636705538  0.23895858646985016  -4.054620704010289 
C  -1.760601475835336  0.23931297658649933  -4.683762355645331 
C  -3.0557341654234764  0.1875812143708438  -4.101848211515573 
C  -3.066712241947512  0.17530363231354304  -2.7293360611815167 
C  -3.042166217998033  0.19378299957899175  0.03981699087138091 
C  -4.242667627272121  0.32910683316094835  -0.6700166208966396 
C  -5.451755296481126  0.5858441260190196  -0.006804527654462156 
C  -5.398918767690112  0.6375757970844427  1.372592509254842 
C  -4.24439690746733  0.50053754681841  2.1255459754343793 
C  -3.063565493450067  0.3047580485839923  1.4227179596715658 
C  0.764822950653837  0.40501243566773015  -4.850484295869254 
C  1.7235813618856866  -0.7103776889147486  -4.576354985367704 
C  0.5339148300998104  0.49710825019035143  -6.359468302016985 
C  1.426627419686864  1.739412164347879  -4.454637685594186 
C  -4.298332078142525  0.06417425005924167  -4.987564621245969 
C  -3.952760331810767  0.09009694298507871  -6.482605490964525 
C  -4.953732363141923  -1.2810951714607353  -4.704637457569518 
C  -5.307486020588936  1.1659754583919908  -4.766124792485648 
C  -6.763197904498171  0.9015779525144951  -0.7566693132551832 
C  -7.181349997672762  -0.2399602666959643  -1.6696284914529702 
C  -6.5490460187275445  2.215812790876425  -1.5224130102300075 
C  -7.936970051838925  1.1422805942562773  0.20372123458752434 
C  -4.218617486867749  0.56685495087566  3.6534635135864506 
C  -3.231250800152604  1.6264117918731207  4.11505173555563 
C  -3.78759538010107  -0.7935763233342881  4.183395869297965 
C  -5.599115546282509  0.8997620635264042  4.232559932413805 
H  -1.7343127242795937  0.27758454427739787  -5.643858167868347 
H  -6.222086494341363  0.7779985439525835  1.8452769028641505 
H  -2.2362440957648277  0.24396559994734604  1.9080753775822505 
H  1.874295098700029  -0.7762583384797993  -3.629904601275441 
H  2.5549163311376084  -0.5324870062909641  -5.020885573667987 
H  1.3559844379728028  -1.534581875001423  -4.900426121334773 
H  0.1208344934881842  -0.31070073000270104  -6.670783796370069 
H  1.375109422610266  0.6189639334937418  -6.804495559584241 
H  -0.039500007714716734  1.2424410999741555  -6.548749195947951 
H  1.5988323453524709  1.7470172745566035  -3.5101191172879425 
H  0.8371242108479431  2.4664020434107026  -4.676771277175554 
H  2.252020770531385  1.841038731869197  -4.931085853977152 
H  -3.3090147342644975  -0.5941188433323908  -6.676194703974299 
H  -3.5841323018260405  0.9486673075266843  -6.70818074368626 
H  -4.746879472850891  -0.06301287613272519  -6.996482551284782 
H  -5.183386407448649  -1.335341630375192  -3.7737001870572575 
H  -4.343682231995011  -1.9894140903239759  -4.925016305619954 
H  -5.748451936439297  -1.3670519708488855  -5.235365672814362 
H  -5.557309424076146  1.189234991828285  -3.839658327267191 
H  -6.084050319165032  0.9970587810669119  -5.3042404736346604 
H  -4.921205606839758  2.00875962887573  -5.0159310052502875 
H  -6.476181567263509  -0.42548809994898906  -2.2934901891413317 
H  -7.9751041191212595  0.00854449049905509  -2.1501706023391325 
H  -7.358245253422105  -1.0228015657416716  -1.1420921618965933 
H  -5.822687645031827  2.112288969786754  -2.1412409923293163 
H  -6.342640777691508  2.9170047517974362  -0.901402446380548 
H  -7.347499136648465  2.4388465515350357  -2.004954562936963 
H  -7.717788625171419  1.858992493522474  0.8029439441490513 
H  -8.104386163539615  0.34204482042694784  0.7110029825607982 
H  -8.721224875867037  1.3732931744990406  -0.2970685204576471 
H  -2.3600800851119184  1.4292249578882785  3.758635787878527 
H  -3.190778053554324  1.6319456806067723  5.072901584361937 
H  -3.515971162633414  2.487137478362914  3.801223649168386 
H  -3.765033107019162  -0.7719428727103999  5.141810559109968 
H  -2.9150816782616915  -1.0050277768911235  3.8470522163308365 
H  -4.414418607942409  -1.4610057856497851  3.892696567833696 
H  -6.233688572531501  0.2370223868424009  3.948258797512827 
H  -5.878121278781362  1.7619023391679771  3.9191699575431063 
H  -5.552948323074004  0.9068082435804616  5.190840955312517 
O  0.0  0.0  1.88 
H  -0.6511917182125614  0.10287963460190092  2.323400729493708 
