55

Ru  0.0  0.0  0.0 
O  0.28671799965777545  -2.1159922054866454  8.006409351859418e-15 
O  2.1957343596130787  3.49462202076585  -0.13082905486199228 
N  1.803603714300937  0.02342257166889744  -7.487995324122385e-16 
N  0.3096782860412879  2.092569633817748  -7.254140372495225e-15 
H  -0.2952332529216912  2.7316800983596803  0.01778466031260609 
C  1.5801366672940187  -2.3102253174700538  -0.0482263249618178 
C  2.227751117432435  -3.537693476544345  -0.11624229684112107 
H  1.7135114623414311  -4.336445738862288  -0.14390274828089666 
C  3.6290985728418033  -3.618391473120567  -0.1445908870401332 
H  4.03150184189079  -4.477739132105373  -0.1837790237146226 
C  4.449434568686841  -2.5138042131236817  -0.12002629924587094 
H  5.393642122406861  -2.610843998074635  -0.1379616173285467 
C  3.8606653336947527  -1.2351799785945208  -0.06637683697879086 
C  2.4530509932276536  -1.162191249878244  -0.033562450015840066 
C  4.556099525135828  -7.026646949382612e-05  -0.06464640664854446 
H  5.5060497973379485  0.004101852266213725  -0.07908433476761897 
C  3.8726310506056763  1.1854785866593907  -0.04126305427529454 
H  4.341340475604583  2.0119427804102576  -0.03676846142132739 
C  2.475995864231221  1.1636361474467718  -0.02492585653416257 
C  1.553655018716202  2.3338924340385523  -0.038682614402760614 
C  1.3853141458301568  4.685624888631019  -0.18820967727919644 
H  1.965391443979806  5.471301738672607  -0.2539244813961558 
H  0.8005510239975764  4.6439989893463425  -0.9726785331640908 
H  0.8398723338926293  4.747385615960763  0.6233406553250156 
C  -0.8544993870438092  0.13170730413915405  -4.288145419939015 
H  -1.2152806057947982  0.9905533725038942  -4.593301909385009 
H  -1.3270085317019948  -0.5999423921013488  -4.736031945976101 
H  0.10048322870806622  0.08454703490814575  -4.503151379432617 
O  -1.9626965500613238  -2.942091015256665e-15  -0.03730344993867174 
N  -0.03730344993866641  1.1102230246251565e-15  -1.9626965500613398 
F  -4.44818317394888  -1.2410665240830692  0.12773101699671274 
F  -4.547151414836791  0.8842417020466623  0.16399285976465228 
C  -1.0391945444818886  0.011674412445947607  -2.795634748710587 
F  -5.069269606815837  -0.17007867385641695  -1.636614504032416 
C  -2.4211096629497315  -0.07803494042716819  -2.3372618139106147 
H  -3.1057087133240673  -0.14719033033657555  -2.9928794786154747 
C  1.3218180411023723  0.0395079203107869  -2.4940417173707985 
C  -2.7799853994241537  -0.06874523507304331  -1.0526284665525467 
C  3.2882973830485613  1.2620684442735264  -3.1208936799160862 
H  3.726345203790726  2.0945792827902965  -3.2486687968018915 
C  3.974722223043953  0.09881945051670116  -3.376953629070714 
C  1.9730735253623846  1.2509948285567498  -2.680440471041345 
H  1.5208652820889375  2.068628327954708  -2.5075123201294574 
C  1.991901105961428  -1.1242379533168514  -2.7450628674832322 
H  1.5566992921455436  -1.95862803319421  -2.614151080948859 
C  3.308034721273387  -1.091713454212533  -3.1915759396367127 
H  3.756347787969309  -1.9091426016198536  -3.373453159756845 
C  -4.226006398419272  -0.14402147510633329  -0.6086086267349808 
C  5.4247855758920265  0.13122764175732865  -3.818621923005823 
H  5.591259974218803  0.9497693154587673  -4.331949784236636 
H  5.61275774621517  -0.6506270196896005  -4.379590693578419 
H  6.00637492676341  0.1147905056718514  -3.0313559339587117 
O  0.0  0.0  1.88 
H  -0.6511917182125614  0.10287963460190092  2.323400729493708 
