55

Ru  0.0  0.0  0.0 
O  0.28671799965777545  2.1159922054866454  -7.74727504371242e-15 
O  2.1957343596130787  -3.49462202076585  0.13082905486199187 
N  1.803603714300937  -0.02342257166889744  7.4593109467002705e-16 
N  0.3096782860412879  -2.092569633817748  6.99787450209044e-15 
H  -0.2952332529216912  -2.7316800983596803  -0.017784660312606424 
C  1.5801366672940187  2.3102253174700538  0.048226324961818084 
C  2.227751117432435  3.537693476544345  0.1162422968411215 
H  1.7135114623414311  4.336445738862288  0.1439027482808972 
C  3.6290985728418033  3.618391473120567  0.14459088704013365 
H  4.03150184189079  4.477739132105373  0.18377902371462315 
C  4.449434568686841  2.5138042131236817  0.12002629924587124 
H  5.393642122406861  2.610843998074635  0.13796161732854703 
C  3.8606653336947527  1.2351799785945208  0.06637683697879102 
C  2.4530509932276536  1.162191249878244  0.03356245001584021 
C  4.556099525135828  7.02664694938182e-05  0.06464640664854446 
H  5.5060497973379485  -0.004101852266213735  0.07908433476761897 
C  3.8726310506056763  -1.1854785866593907  0.04126305427529439 
H  4.341340475604583  -2.0119427804102576  0.03676846142132714 
C  2.475995864231221  -1.1636361474467718  0.02492585653416243 
C  1.553655018716202  -2.3338924340385523  0.03868261440276033 
C  1.3853141458301568  -4.685624888631019  0.18820967727919585 
H  1.965391443979806  -5.471301738672607  0.25392448139615514 
H  0.8005510239975764  -4.6439989893463425  0.9726785331640903 
H  0.8398723338926293  -4.747385615960763  -0.6233406553250161 
C  -3.8773597747691873  -0.13170730413915424  -2.0210001291449817 
H  -4.069291263387066  -0.9905533725038943  -2.452793916190809 
H  -4.175028279260498  0.5999423921013486  -2.600017135307224 
H  -4.35116062829357  -0.08454703490814602  -1.1644184866813898 
O  0.5137437220760461  3.0937292478842964e-15  -1.8946336540416988 
N  -1.8737437220760595  -1.222672559680074e-15  -0.5853663459582952 
F  1.3681130650225313  1.2410665240830696  -4.234491162231845 
F  1.4306355415283685  -0.884241702046662  -4.3193473575092165 
C  -2.392834886307235  -0.01167441244594769  -1.7804044923415778 
F  -0.15175443396268418  0.17007867385641726  -5.32475088367228 
C  -1.565860635728265  0.07803494042716824  -2.9786985843267146 
H  -2.0035658597401165  0.14719033033657564  -3.8194866188034378 
C  -2.764389100184631  -0.03950792031078715  0.5706136385944535 
C  -0.2321274160516814  0.06874523507304348  -2.9635219540819007 
C  -3.91678119997304  -1.2620684442735268  2.282915257350114 
H  -4.162098701991219  -2.094579282790297  2.6676641325345667 
C  -4.354797706360193  -0.09881945051670166  2.870186317982394 
C  -3.125683439301159  -1.2509948285567503  1.1436272524563122 
H  -2.8330541063091816  -2.068628327954708  0.7579272211691312 
C  -3.192992662453103  1.124237953316851  1.1436074588276655 
H  -2.9454608395116573  1.9586280331942096  0.7624690177940411 
C  -3.9901626240077928  1.0917134542125326  2.2820720693241716 
H  -4.290292413997978  1.9091426016198532  2.661526991718619 
C  0.5990175098918152  0.1440214751063336  -4.227376557968295 
C  -5.184817007335358  -0.1312276417573293  4.138580014414714 
H  -5.724224585648437  -0.949769315458768  4.154663635663792 
H  -5.77597923477553  0.6506270196895998  4.161962042164605 
H  -4.591886676094119  -0.11479050567185205  4.917340268184434 
O  0.0  0.0  1.88 
H  -0.6511917182125614  0.10287963460190092  2.323400729493708 
