66

Ru  0.0  0.0  0.0 
N  0.27933010004889613  -2.1396033907547807  -2.5673907444456745e-16 
C  1.5358047390659353  -2.3868855553875394  0.009379902000565342 
N  1.7786503096050252  -0.01406506147991915  3.684552662974738e-15 
C  2.423617369404056  -1.188899640024828  0.05672966445694396 
N  0.34201959034607843  2.1536684522347  -3.427813588530171e-15 
C  3.8085231457576825  -1.2453096219887452  0.13940133165430904 
H  4.248888393472721  -2.0624837239857268  0.19241185542367625 
C  4.518908188778074  -0.05733716642047826  0.14270518758630726 
H  5.4477578887972955  -0.06829861865969344  0.20061910075929415 
C  3.8439089922666554  1.1432842486891406  0.05841051225555346 
H  4.312890914285322  1.9458663442013493  0.03888010563128299 
C  2.4610046236195338  1.1377102573662188  0.0046059790130644415 
C  1.6116585881348693  2.3545144712854698  -0.06521849373708652 
C  2.1765879369306433  -3.7327541850435857  -0.0531799496779378 
H  1.5005108203634276  -4.4030277888126506  -0.17594846577465337 
H  2.648897724723857  -3.9002514938928643  0.7659781583103682 
H  2.7934941373954656  -3.7597877854101305  -0.788101567457194 
C  2.293741606325286  3.676525063863544  -0.19746220590375907 
H  1.6350166071979526  4.369765474274843  -0.284607595325507 
H  2.8558449377001116  3.670191588525232  -0.9751671190600684 
H  2.8287608355950873  3.8402822129399317  0.5818027942328576 
C  -0.669685614030546  -3.22167348519481  -0.016896601694750914 
C  -0.8846184023766714  -3.9933767022786464  1.1315051273339984 
C  -1.845291985062982  -5.007825340063193  1.0434666764972989 
H  -2.011941302154926  -5.53906362234839  1.7881992073749715 
C  -2.5493301308075234  -5.2381757473192305  -0.11627596271778465 
H  -3.1713342088372727  -5.928307595416326  -0.14848076292599513 
C  -2.3402627730008287  -4.454232892781109  -1.229905605246371 
H  -2.820923941737022  -4.607982778757734  -2.0111670873580465 
C  -1.4046701807172013  -3.4324828784122494  -1.1736917332818984 
H  -1.269397007163256  -2.88620988907693  -1.9149782228655807 
C  -0.11895243924347987  -3.7583452465647516  2.3954876816931687 
H  -0.10456942318596041  -2.819424848911214  2.5911500074465237 
H  0.7807991797228806  -4.0770220996555135  2.2882890461067964 
H  -0.5412752962006442  -4.229332502742897  3.1173951196721124 
C  -0.5994840061907081  3.2878851146459804  -0.24170262807200724 
C  -1.0965301093903586  3.9731029192598504  0.8588445910577271 
C  -1.9450389900220582  5.052960121130211  0.6115686458914995 
H  -2.2813156637220713  5.53174242247216  1.3337953877440587 
C  -2.304825466978131  5.437543078194139  -0.6682837597145156 
H  -2.8599882959247624  6.170760319007538  -0.800639987863998 
C  -1.8237729592054144  4.7138774893049264  -1.7460849288654912 
H  -2.0776951372872148  4.944206270729243  -2.6112499708810506 
C  -0.9640783896610403  3.6436826163949765  -1.5358011418224342 
H  -0.6315783174856684  3.1667098401678477  -2.260532459444046 
C  -0.7657036777439645  3.5691105927061657  2.2626217002206657 
H  -1.1309005355442132  2.699435430807614  2.4395674202298054 
H  -1.1422277982766165  4.204531410434123  2.87650270746478 
H  0.18731569840717022  3.5443575924721404  2.3724424526307457 
O  -1.9296018879068606  -1.8388068845354155e-15  -0.07039811209313918 
O  -0.07039811209313918  -8.881784197001252e-16  -1.9296018879068613 
O  -6.188621572128499  0.3261389363660055  -2.672375916302651 
O  -5.585760360859266  -0.15592195178118418  -4.715271283193912 
N  -5.313639326383851  0.1117703042780002  -3.5077592589713635 
C  -2.3262342366970556  -0.010077159933437978  -1.3525760914473537 
C  -1.296522155320518  -0.008344959814986532  -2.358796310360672 
C  -1.6581552043344359  0.04738953075773184  -3.6989243170904516 
H  -0.9882976778285932  0.07152600595921674  -4.344821239786583 
C  -2.9553883509848777  0.0688865715481606  -4.100962885474961 
H  -3.1746238042675587  0.0860776269156492  -5.004413461676718 
C  -3.9364765329654015  0.0655874126466  -3.1320092876547436 
C  -3.636252319591372  0.034137525310065725  -1.7626808879308133 
H  -4.321205782948734  0.043724857000058445  -1.134484178208579 
O  0.0  0.0  1.88 
H  -0.6511917182125614  0.10287963460190092  2.323400729493708 
