77

Ru  0.0  0.0  0.0 
N  0.2476835340346305  -2.2423552531709876  4.0245584642661925e-16 
N  1.7665216570626625  -0.022589741672828345  -5.509481759702339e-15 
N  0.3857948089027068  2.2649449948438156  5.093148125467906e-15 
C  1.517967441585851  -2.425738760910538  0.008278484495357216 
C  2.3875754063181036  -1.200102446181222  0.06605513800670874 
C  3.7667278912048276  -1.2773343297413429  0.14035843263441444 
H  4.1977169716437235  -2.1011122227248418  0.16963035730808923 
C  4.49050870186081  -0.09815343495711881  0.17243343071774125 
H  5.415224913038231  -0.12162405572694368  0.2677169484233323 
C  3.8455268736271133  1.0924596165980107  0.06204424322685102 
H  4.329664715855033  1.8853233174291266  0.029938922370624496 
C  2.456537873547889  1.117415782238012  -0.00029400711326983686 
C  1.6632545405643149  2.374689351919973  -0.05525703641162023 
C  2.1926634326222163  -3.7531424336757526  -0.027551938456045158 
H  1.5310940090297405  -4.445770195686704  -0.10807827613024 
H  2.6923010544619492  -3.880566842373023  0.7819578619234733 
H  2.7862120636724512  -3.79121680606888  -0.7813573408944074 
C  2.3969742794490108  3.684262148643803  -0.16491283813636565 
H  1.7655319068997781  4.394604272510228  -0.29661632028597956 
H  2.999948870463509  3.651030288941526  -0.9119957894152891 
H  2.8935000280455103  3.842079770438537  0.6404726094797051 
C  -0.631175835120781  -3.3743691043324366  -0.12210655193877452 
C  -1.052394216813145  -3.7401784339933113  -1.411294955259844 
C  -1.9469827558019366  -4.799119439421137  -1.5059343917195058 
H  -2.2307577856937213  -5.065877785367912  -2.351051316930248 
C  -2.4324731584797687  -5.470137522337194  -0.41161380738081393 
C  -1.9824114805610378  -5.090679056341573  0.82418456559644 
H  -2.2911038867773916  -5.549186556290261  1.5736940123915821 
C  -1.079349396915185  -4.041748298639115  1.002514228375677 
C  -0.4980161731327908  -3.0703787389412405  -2.624624524335491 
H  -0.953849501022721  -3.393711199120621  -3.4045679757338214 
H  0.439337853423444  -3.264781124270759  -2.697188161765042 
H  -0.6232845119991184  -2.1217928194954334  -2.550330939775146 
C  -3.40768026801062  -6.618769285912859  -0.5896891712735716 
H  -3.3076306413161616  -7.23951295008858  0.13392862534560884 
H  -3.2280795748591515  -7.0652114774630235  -1.420872147893881 
H  -4.305278041823692  -6.277522107285806  -0.5975840762694576 
C  -0.5667664007252995  -3.6905872727860816  2.3772391993930966 
H  0.3765667002448134  -3.858600914108019  2.4199525104782227 
H  -1.0181524644881395  -4.225593818298138  3.0337501724163545 
H  -0.7342986048949058  -2.7605838792589785  2.55175271919642 
C  -0.48972303479555346  3.3990678764544593  -0.067107710235994 
C  -0.9821828048700116  3.9429385044974676  1.1013434204538242 
C  -1.9287470149682935  4.954948947291955  0.9970946802411984 
H  -2.27306369986266  5.327727911162655  1.7765378177431204 
C  -2.377578196300017  5.425836265612735  -0.21403097554726452 
C  -1.828276690824154  4.878844823830238  -1.3584544630284758 
H  -2.1035639452493617  5.201649607981113  -2.1861986136452822 
C  -0.8864514146117817  3.8714812292703953  -1.3180088521051656 
C  -0.4838416682132449  3.4860382457206276  2.4491228961267906 
H  -0.7385701592655214  2.571536422778832  2.5918085354965643 
H  -0.8690446316242226  4.035285348451361  3.135601910461021 
H  0.4721406436912219  3.5595300802833325  2.479514170835137 
C  -3.4245035065788842  6.528272996221667  -0.2909981094537815 
H  -4.148779352471055  6.324354149241706  0.30643348738684745 
H  -3.757219649623842  6.590903139578429  -1.1879995271228945 
H  -3.0265455638963115  7.3649982294371155  -0.037188633751220404 
C  -0.315608218512506  3.3056294796146326  -2.592971009535211 
H  -0.7134674228331932  3.7495421505772524  -3.3465440279588683 
H  -0.5056524987709494  2.365463821904447  -2.6389848944334102 
H  0.6333000290366217  3.442133703505452  -2.607841268215148 
O  0.42045479059250773  -1.441301072358372e-14  -1.8434752077442769 
N  -1.7804547905925083  1.172174466996894e-14  -0.6365247922557213 
H  -2.4951719743493794  -0.06804050525600608  -0.1635954033537853 
C  -1.8849318058232336  -0.013079485354972477  -1.9901014950514488 
C  -3.0702319319189186  0.016410292758535578  -2.736374484020247 
H  -3.893937534183326  0.058765012552410234  -2.30732845093126 
C  -3.006367138050514  -0.017866207244689878  -4.091936603456946 
H  -3.791988821561207  0.00402823548674007  -4.587959590600993 
C  -1.784116254758332  -0.0848258926414395  -4.747194383893808 
H  -1.7626229774229059  -0.12705434678122568  -5.67727908793446 
C  -0.5916463819337414  -0.09163107389365258  -4.0294784220301585 
H  0.2232622654919031  -0.1338605560000962  -4.476248673045072 
C  -0.6237741162744643  -0.034793634409702935  -2.6395358857506643 
O  0.0  0.0  1.88 
H  -0.6511917182125614  0.10287963460190092  2.323400729493708 
