66

Ru  0.0  0.0  0.0 
N  0.27933010004889613  2.1396033907547807  -5.286769948699116e-18 
C  1.5358047390659353  2.3868855553875394  -0.009379902000565635 
N  1.7786503096050252  0.01406506147991915  -3.6862751362268575e-15 
C  2.423617369404056  1.188899640024828  -0.05672966445694411 
N  0.34201959034607843  -2.1536684522347  3.6915619061755566e-15 
C  3.8085231457576825  1.2453096219887452  -0.13940133165430918 
H  4.248888393472721  2.0624837239857268  -0.1924118554236765 
C  4.518908188778074  0.05733716642047824  -0.14270518758630726 
H  5.4477578887972955  0.06829861865969342  -0.20061910075929415 
C  3.8439089922666554  -1.1432842486891406  -0.05841051225555332 
H  4.312890914285322  -1.9458663442013493  -0.03888010563128275 
C  2.4610046236195338  -1.1377102573662188  -0.004605979013064302 
C  1.6116585881348693  -2.3545144712854698  0.06521849373708681 
C  2.1765879369306433  3.7327541850435857  0.05317994967793734 
H  1.5005108203634276  4.4030277888126506  0.17594846577465284 
H  2.648897724723857  3.9002514938928643  -0.7659781583103686 
H  2.7934941373954656  3.7597877854101305  0.7881015674571935 
C  2.293741606325286  -3.676525063863544  0.1974622059037595 
H  1.6350166071979526  -4.369765474274843  0.28460759532550756 
H  2.8558449377001116  -3.670191588525232  0.9751671190600688 
H  2.8287608355950873  -3.8402822129399317  -0.5818027942328572 
C  -0.669685614030546  3.22167348519481  0.016896601694750518 
C  -0.8846184023766714  3.9933767022786464  -1.1315051273339989 
C  -1.845291985062982  5.007825340063193  -1.0434666764972995 
H  -2.011941302154926  5.53906362234839  -1.7881992073749722 
C  -2.5493301308075234  5.2381757473192305  0.11627596271778401 
H  -3.1713342088372727  5.928307595416326  0.1484807629259944 
C  -2.3402627730008287  4.454232892781109  1.2299056052463706 
H  -2.820923941737022  4.607982778757734  2.011167087358046 
C  -1.4046701807172013  3.4324828784122494  1.173691733281898 
H  -1.269397007163256  2.8862098890769303  1.9149782228655803 
C  -0.11895243924347987  3.758345246564751  -2.395487681693169 
H  -0.10456942318596041  2.8194248489112135  -2.591150007446524 
H  0.7807991797228806  4.0770220996555135  -2.288289046106797 
H  -0.5412752962006442  4.229332502742897  -3.117395119672113 
C  -0.5994840061907081  -3.2878851146459804  0.24170262807200765 
C  -1.0965301093903586  -3.9731029192598504  -0.8588445910577267 
C  -1.9450389900220582  -5.052960121130211  -0.6115686458914988 
H  -2.2813156637220713  -5.53174242247216  -1.333795387744058 
C  -2.304825466978131  -5.437543078194139  0.6682837597145163 
H  -2.8599882959247624  -6.170760319007538  0.8006399878639988 
C  -1.8237729592054144  -4.7138774893049264  1.7460849288654918 
H  -2.0776951372872148  -4.944206270729243  2.611249970881051 
C  -0.9640783896610403  -3.6436826163949765  1.5358011418224347 
H  -0.6315783174856684  -3.1667098401678473  2.2605324594440463 
C  -0.7657036777439645  -3.569110592706166  -2.262621700220665 
H  -1.1309005355442132  -2.6994354308076143  -2.439567420229805 
H  -1.1422277982766165  -4.204531410434123  -2.8765027074647795 
H  0.18731569840717022  -3.544357592472141  -2.3724424526307453 
O  0.4727063410045076  1.9859058386904983e-15  -1.872129283776665 
O  -1.832706341004508  7.802681631177579e-16  -0.607870716223335 
O  -0.8326668394545644  -0.32613893636600516  -6.689341965808102 
O  -2.962647530825561  0.15592195178118434  -6.682605905719191 
N  -1.87962987722503  -0.11177030427799999  -6.083266345840479 
C  -0.6471274615142836  0.01007715993343808  -2.611906172834433 
C  -1.9014182544565  0.008344959814986496  -1.9051242360086857 
C  -3.0866838871931908  -0.047389530757731925  -2.6275278049463853 
H  -3.8943050404031134  -0.0715260059592169  -2.165315717855693 
C  -3.109415631780196  -0.0688865715481606  -3.9854424248784723 
H  -3.9153422580147317  -0.08607762691564924  -4.448874621366338 
C  -1.9045154869182408  -0.06558741264659987  -4.655980072190114 
C  -0.6740230029279961  -0.034137525310065545  -3.984352875428345 
H  0.1208328081454102  -0.043724857000058175  -4.466013121529187 
O  0.0  0.0  1.88 
H  -0.6511917182125614  0.10287963460190092  2.323400729493708 
