70

Ru  0.0  0.0  0.0 
C  4.316491785133042  -0.7823058293205886  0.7400450317023287 
H  4.823580464692911  -0.9759067766674259  -0.05173981549331979 
H  4.566411673551145  -1.3930900213488944  1.4373563611251439 
H  4.494846167568616  0.11713212858960066  1.0228884055620915 
C  5.434332658908385  3.441449819372961  -1.626319769220495 
H  5.37097824588296  3.97189958146144  -2.4239993842605676 
H  5.960179425812638  2.6579465077265945  -1.8043886277430383 
H  5.85218151791849  3.9560050213699554  -0.9320627958152679 
O  0.23818078894506955  1.8839324382438438  1.1926226936614944e-14 
N  2.075707132434383  0.03173389408536331  -7.275847092476387e-15 
C  2.8458665781002335  -0.9335717776746824  0.44370832572710367 
O  0.08611207862054682  -1.9156663323292067  -4.816913297832331e-15 
C  2.516699865604915  1.3171910617293159  -0.3997026512841487 
C  1.075539765150326  -2.7026794231348363  0.4287215273681681 
C  0.6929432417678945  -4.133452867483195  0.5266959691538394 
C  3.7721017606616476  1.7045085370052164  -0.8648315207750321 
H  4.439744498880256  1.064909448548855  -0.9636126938281436 
C  1.4930086603718729  2.2775430598430577  -0.34843642412174924 
C  2.31764379309911  -2.241441071876865  0.6952515202061857 
H  2.9014822705134744  -2.8477719487422624  1.0907008216976863 
C  1.7563175746699158  3.595303072232631  -0.6786766630361141 
H  1.0804588871987264  4.232710342106051  -0.6401686524118851 
C  1.6034881859657986  -5.112846056094911  0.9111068778135856 
H  2.468886888992136  -4.870616865359739  1.1496887798013904 
C  4.04366066474792  3.0269880831601954  -1.1823720089228937 
C  -0.5760799986459038  -4.540582468755572  0.205464521351077 
H  -1.2137467833968538  -3.9071252142121233  -0.03340539783436904 
C  1.2318239095562464  -6.440394815158214  0.9400899409789877 
H  1.8562445423665286  -7.083823621185218  1.18675778423277 
C  -0.021426971385339888  -6.8235077654244325  0.6174538041972404 
H  -0.2663911212358705  -7.719479438544814  0.6571553942644947 
C  3.0244897318377753  3.9550670073556695  -1.0641413446465091 
H  3.2035478692613184  4.848584000850449  -1.250890791120819 
C  -0.9200772509974777  -5.876410385847517  0.23256574442976097 
H  -1.7783941377752626  -6.133249827826481  -0.015749524766521666 
N  0.469680684072756  1.4676427638040513e-16  -1.8704700525560274 
N  -0.3091302355903458  -0.03459908167478447  -3.955242058066665 
H  -0.8840556035231801  -0.0465963211372169  -4.621152823524461 
C  -0.6198226886615219  -0.02786822759030816  -2.6353163460631714 
C  1.0785055156183838  -0.01765176038412373  -4.070124216248323 
C  1.996388640819015  0.020169026519859093  -5.165669695244949 
H  1.6874552371058238  0.03122342799535241  -6.06448300860774 
C  3.3651783273001423  0.04176409816347936  -4.875409971783966 
C  3.774599877612962  -0.010487686398163922  -3.5859074494329697 
C  2.937822554118345  -0.03301449520301813  -2.5034334341465394 
H  3.281288809205936  -0.05685942763881542  -1.6182837401324466 
C  1.5641878848516722  -0.01809106749858284  -2.7452244527849916 
C  4.452013014988961  0.135236411054026  -5.959773447911434 
H  5.158694215237577  0.7472093622086736  -5.663007431881571 
H  4.056525226504249  0.4741522775926054  -6.790961335556498 
H  4.833374051610737  -0.7524449064534349  -6.117915340827315 
N  -1.8296806840727557  -1.0757557880768983e-16  -0.6095299474439729 
N  -3.168850144948749  -0.04225331205782669  -2.386856074714185 
H  -3.421171857875244  -0.060396902799526704  -3.229556076672682 
C  -1.88904314832905  -0.013778501813403126  -1.9395729131880237 
C  -4.011549858554558  -0.039493260790664904  -1.2783684091058962 
C  -5.427904202798811  -0.09537636565681919  -1.091981445691147 
H  -6.019316762256896  -0.13918420516347638  -1.8347938901971694 
C  -5.918999755288857  -0.08513283794992765  0.21844148545156705 
C  -5.053063104825046  0.013449726615532894  1.2545921527520518 
C  -3.6910516760923002  0.05514594071559794  1.1299993611021204 
H  -3.130017433991587  0.11184926032691092  1.8942329266667055 
C  -3.155913854685168  0.009673005088368202  -0.15733466867612722 
C  -7.4159221032847  -0.1935026762261909  0.5549980516074147 
H  -7.535500078718639  -0.7841475406269723  1.3288320337690342 
H  -7.898248073383657  -0.5642185842289025  -0.21443188290374993 
H  -7.769206798333291  0.6951985890919528  0.7643379791567462 
O  0.0  0.0  1.88 
H  -0.6511917182125614  0.10287963460190092  2.323400729493708 
