69

Ru  0.0  0.0  0.0 
O  0.05022038169542031  -1.8745881039659333  -1.1879386363489173e-14 
O  0.30359616618577323  1.888956096894991  1.676436767183986e-14 
C  2.8082050650779227  -1.0502576851745467  -0.07425750388165246 
N  2.0461834521188065  -0.014367992929057494  -4.884981308350688e-15 
C  3.363308872354846  -3.491053789161057  -0.0645847632704337 
C  1.024116782184244  -2.7680950604451326  -0.06390516284457613 
C  0.6187866499392347  -4.123079263526446  -0.18858484560941943 
C  2.3786139213162727  -2.4262356172936035  -0.04754908717603034 
C  1.5371078844307635  -5.113697362910157  -0.24610433322324152 
C  2.9364798004140154  -4.836344424487063  -0.1806551292140268 
C  4.75543153734487  -3.2612836944047543  0.04194973431956072 
C  5.657548780653612  -4.29586379136095  0.015936808549026345 
C  3.8860292682831803  -5.87885603905405  -0.22755621195541817 
C  2.652358425651502  1.3420321575926173  -0.10807100965297244 
C  1.5908429885967634  2.2738613216582637  0.47303253180173527 
C  5.225407912733722  -5.615961317369532  -0.14773420934805445 
O  3.4046505532765527  2.9178301170374645  -1.7742486519597072 
C  2.8540993611863836  1.6228500026316932  -1.5985668140204727 
C  3.9603915156753127  1.5011751190433802  0.6650079211318717 
H  3.7217279392319336  -0.8972206131030683  -0.15116395984722145 
H  -0.28644873225330447  -4.329396196036741  -0.23234368684486204 
H  1.250634333700283  -5.994968564292411  -0.32880955885105884 
H  5.066700808790731  -2.3894916523691876  0.13260780675119285 
H  6.565270366098258  -4.117633916702992  0.10756292435268365 
H  3.598506877634321  -6.758615566776189  -0.31359532084017666 
H  1.610144479325057  2.2289971347791733  1.44254332967422 
H  1.7765261285442466  3.187709419406771  0.20911753453807488 
H  5.843084625793654  -6.308385198331753  -0.20210412029790367 
H  2.946303983696815  3.3390526926280746  -2.308765493572111 
H  3.450064877734529  0.9592494131359552  -1.9787300825070644 
H  2.0016124871987984  1.5650519383799446  -2.0600255483051613 
H  4.202332994593056  2.4289252560498054  0.6942223707014815 
H  4.654288468651039  1.0014393687935381  0.22686294675326446 
H  3.8437361414473203  1.1721685797401509  1.5594610449787498 
O  -1.983033562499267  1.2524703496552547e-15  -0.01696643750073301 
C  -2.8031263568876907  -0.0029788774590563064  -1.0354564153018315 
C  -4.190731893559916  0.08079202443918201  -0.8034689790218292 
C  -5.085481796217273  0.1109326054081852  -1.830257008302244 
C  -4.65845130164857  0.0681234594407853  -3.1577298041553137 
C  -3.3285972896207863  -0.017906408327009037  -3.421586637581184 
C  -2.3692990252080905  -0.024882610032150233  -2.385632882578296 
C  -0.9839434209379949  0.016006635643170748  -2.745600963532109 
O  -0.016966437500732567  -2.7755575615628914e-17  -1.9830335624992672 
H  -4.513372505605779  0.11559978821355836  0.09827878783968047 
H  -6.02299979265341  0.16406605590010223  -1.6407000174071924 
H  -5.294801459087625  0.09904764567986277  -3.8772559620069424 
H  -3.0355792094587812  -0.07923598852698205  -4.331559904930641 
H  -0.7890987394361275  0.06149555785286489  -3.681361850749913 
N  0.0  0.0  1.96 
N  -0.00605157828302727  -0.1392210237152327  9.057728393292884 
C  -1.1280336022664137  -0.10658296564893459  2.6689945793807848 
H  -1.9290854573036673  -0.20436232589852377  2.2052764729297274 
C  -1.1758230663320433  -0.08158015682221803  4.040408184634537 
H  -1.9921832001920228  -0.1571395955614402  4.480720758905964 
C  -0.0030285584847690172  0.05812864234474879  4.7710733499452935 
C  1.1671495979751085  0.2142961977283609  4.036470275632595 
H  1.977032665552287  0.3415607412854321  4.474161402804473 
C  1.1260728720503208  0.1806936994422785  2.663690794180373 
H  1.9239402854072218  0.2904016516906975  2.198859893834207 
C  -1.066320027988871  0.2666747955881221  8.368192615808908 
H  -1.8295956477665407  0.5009100067757635  8.845971031073658 
C  -1.1139414512441688  0.3662003613993733  6.997589251667012 
H  -1.8874260803032934  0.6639470916883611  6.57373867279341 
C  -0.0012294792339029303  0.01760778777724681  6.251778152955998 
C  1.1238300622920079  -0.39484720275704643  6.966637865630354 
H  1.9037823944692933  -0.6282700536492545  6.515873656522569 
C  1.0739692608664713  -0.4561390969568644  8.341792298480208 
H  1.83694101078601  -0.732278554710867  8.797939860893997 
69

Ru  0.0  0.0  0.0 
O  0.05022038169542031  -1.8745881039659333  -1.1879386363489173e-14 
O  0.30359616618577323  1.888956096894991  1.676436767183986e-14 
C  2.8082050650779227  -1.0502576851745467  -0.07425750388165246 
N  2.0461834521188065  -0.014367992929057494  -4.884981308350688e-15 
C  3.363308872354846  -3.491053789161057  -0.0645847632704337 
C  1.024116782184244  -2.7680950604451326  -0.06390516284457613 
C  0.6187866499392347  -4.123079263526446  -0.18858484560941943 
C  2.3786139213162727  -2.4262356172936035  -0.04754908717603034 
C  1.5371078844307635  -5.113697362910157  -0.24610433322324152 
C  2.9364798004140154  -4.836344424487063  -0.1806551292140268 
C  4.75543153734487  -3.2612836944047543  0.04194973431956072 
C  5.657548780653612  -4.29586379136095  0.015936808549026345 
C  3.8860292682831803  -5.87885603905405  -0.22755621195541817 
C  2.652358425651502  1.3420321575926173  -0.10807100965297244 
C  1.5908429885967634  2.2738613216582637  0.47303253180173527 
C  5.225407912733722  -5.615961317369532  -0.14773420934805445 
O  3.4046505532765527  2.9178301170374645  -1.7742486519597072 
C  2.8540993611863836  1.6228500026316932  -1.5985668140204727 
C  3.9603915156753127  1.5011751190433802  0.6650079211318717 
H  3.7217279392319336  -0.8972206131030683  -0.15116395984722145 
H  -0.28644873225330447  -4.329396196036741  -0.23234368684486204 
H  1.250634333700283  -5.994968564292411  -0.32880955885105884 
H  5.066700808790731  -2.3894916523691876  0.13260780675119285 
H  6.565270366098258  -4.117633916702992  0.10756292435268365 
H  3.598506877634321  -6.758615566776189  -0.31359532084017666 
H  1.610144479325057  2.2289971347791733  1.44254332967422 
H  1.7765261285442466  3.187709419406771  0.20911753453807488 
H  5.843084625793654  -6.308385198331753  -0.20210412029790367 
H  2.946303983696815  3.3390526926280746  -2.308765493572111 
H  3.450064877734529  0.9592494131359552  -1.9787300825070644 
H  2.0016124871987984  1.5650519383799446  -2.0600255483051613 
H  4.202332994593056  2.4289252560498054  0.6942223707014815 
H  4.654288468651039  1.0014393687935381  0.22686294675326446 
H  3.8437361414473203  1.1721685797401509  1.5594610449787498 
O  0.5389616174990914  -1.0980426834227526e-15  -1.9084628224995015 
C  -0.20916277876120437  0.0029788774590564656  -2.980929098896696 
C  0.402074710335821  -0.08079202443918172  -4.248073931943632 
C  -0.333111825029317  -0.1109326054081849  -5.39453448669321 
C  -1.7270542475275008  -0.06812345944078511  -5.356277594746115 
C  -2.352715930984116  0.017906408327009096  -4.153497656558686 
C  -1.626803840216898  0.024882610032150282  -2.94250427132169 
C  -2.3602727671281856  -0.016006635643170834  -1.7133539538894658 
O  -1.8989616174990913  -8.748339304415793e-17  -0.5715371775004984 
H  1.3580919378957121  -0.11559978821355801  -4.305319544786437 
H  0.11136792523205097  -0.16406605590010184  -6.241475805821287 
H  -2.239621314982129  -0.09904764567986257  -6.168641070086064 
H  -3.3083353300849563  0.07923598852698203  -4.12699281446101 
H  -3.3131597296778006  -0.06149555785286504  -1.7883161080686585 
N  0.0  0.0  1.96 
N  -0.00605157828302727  -0.1392210237152327  9.057728393292884 
C  -1.1280336022664137  -0.10658296564893459  2.6689945793807848 
H  -1.9290854573036673  -0.20436232589852377  2.2052764729297274 
C  -1.1758230663320433  -0.08158015682221803  4.040408184634537 
H  -1.9921832001920228  -0.1571395955614402  4.480720758905964 
C  -0.0030285584847690172  0.05812864234474879  4.7710733499452935 
C  1.1671495979751085  0.2142961977283609  4.036470275632595 
H  1.977032665552287  0.3415607412854321  4.474161402804473 
C  1.1260728720503208  0.1806936994422785  2.663690794180373 
H  1.9239402854072218  0.2904016516906975  2.198859893834207 
C  -1.066320027988871  0.2666747955881221  8.368192615808908 
H  -1.8295956477665407  0.5009100067757635  8.845971031073658 
C  -1.1139414512441688  0.3662003613993733  6.997589251667012 
H  -1.8874260803032934  0.6639470916883611  6.57373867279341 
C  -0.0012294792339029303  0.01760778777724681  6.251778152955998 
C  1.1238300622920079  -0.39484720275704643  6.966637865630354 
H  1.9037823944692933  -0.6282700536492545  6.515873656522569 
C  1.0739692608664713  -0.4561390969568644  8.341792298480208 
H  1.83694101078601  -0.732278554710867  8.797939860893997 
69

Ru  0.0  0.0  0.0 
O  0.05022038169542031  1.8745881039659333  1.1649815531365015e-14 
O  0.30359616618577323  -1.888956096894991  -1.6533037268060627e-14 
C  2.8082050650779227  1.0502576851745467  0.07425750388165234 
N  2.0461834521188065  0.014367992929057494  4.883221736695614e-15 
C  3.363308872354846  3.491053789161057  0.06458476327043328 
C  1.024116782184244  2.7680950604451326  0.0639051628445758 
C  0.6187866499392347  4.123079263526446  0.18858484560941893 
C  2.3786139213162727  2.4262356172936035  0.04754908717603004 
C  1.5371078844307635  5.113697362910157  0.24610433322324088 
C  2.9364798004140154  4.836344424487063  0.1806551292140262 
C  4.75543153734487  3.2612836944047543  -0.04194973431956112 
C  5.657548780653612  4.29586379136095  -0.015936808549026873 
C  3.8860292682831803  5.87885603905405  0.22755621195541745 
C  2.652358425651502  -1.3420321575926173  0.1080710096529726 
C  1.5908429885967634  -2.2738613216582637  -0.473032531801735 
C  5.225407912733722  5.615961317369532  0.14773420934805376 
O  3.4046505532765527  -2.9178301170374645  1.7742486519597076 
C  2.8540993611863836  -1.622850002631693  1.598566814020473 
C  3.9603915156753127  -1.5011751190433802  -0.6650079211318715 
H  3.7217279392319336  0.8972206131030683  0.15116395984722134 
H  -0.28644873225330447  4.329396196036741  0.2323436868448615 
H  1.250634333700283  5.994968564292411  0.3288095588510581 
H  5.066700808790731  2.3894916523691876  -0.13260780675119316 
H  6.565270366098258  4.117633916702992  -0.10756292435268415 
H  3.598506877634321  6.758615566776189  0.31359532084017583 
H  1.610144479325057  -2.2289971347791733  -1.4425433296742198 
H  1.7765261285442466  -3.187709419406771  -0.2091175345380745 
H  5.843084625793654  6.308385198331753  0.2021041202979029 
H  2.946303983696815  -3.339052692628074  2.3087654935721114 
H  3.450064877734529  -0.959249413135955  1.9787300825070646 
H  2.0016124871987984  -1.5650519383799444  2.0600255483051613 
H  4.202332994593056  -2.4289252560498054  -0.6942223707014812 
H  4.654288468651039  -1.0014393687935381  -0.22686294675326435 
H  3.8437361414473203  -1.172168579740151  -1.5594610449787496 
O  -1.983033562499267  1.2524703496552547e-15  -0.01696643750073301 
C  -2.8031263568876907  -0.0029788774590563064  -1.0354564153018315 
C  -4.190731893559916  0.08079202443918201  -0.8034689790218292 
C  -5.085481796217273  0.1109326054081852  -1.830257008302244 
C  -4.65845130164857  0.0681234594407853  -3.1577298041553137 
C  -3.3285972896207863  -0.017906408327009037  -3.421586637581184 
C  -2.3692990252080905  -0.024882610032150233  -2.385632882578296 
C  -0.9839434209379949  0.016006635643170748  -2.745600963532109 
O  -0.016966437500732567  -2.7755575615628914e-17  -1.9830335624992672 
H  -4.513372505605779  0.11559978821355836  0.09827878783968047 
H  -6.02299979265341  0.16406605590010223  -1.6407000174071924 
H  -5.294801459087625  0.09904764567986277  -3.8772559620069424 
H  -3.0355792094587812  -0.07923598852698205  -4.331559904930641 
H  -0.7890987394361275  0.06149555785286489  -3.681361850749913 
N  0.0  0.0  1.96 
N  -0.00605157828302727  -0.1392210237152327  9.057728393292884 
C  -1.1280336022664137  -0.10658296564893459  2.6689945793807848 
H  -1.9290854573036673  -0.20436232589852377  2.2052764729297274 
C  -1.1758230663320433  -0.08158015682221803  4.040408184634537 
H  -1.9921832001920228  -0.1571395955614402  4.480720758905964 
C  -0.0030285584847690172  0.05812864234474879  4.7710733499452935 
C  1.1671495979751085  0.2142961977283609  4.036470275632595 
H  1.977032665552287  0.3415607412854321  4.474161402804473 
C  1.1260728720503208  0.1806936994422785  2.663690794180373 
H  1.9239402854072218  0.2904016516906975  2.198859893834207 
C  -1.066320027988871  0.2666747955881221  8.368192615808908 
H  -1.8295956477665407  0.5009100067757635  8.845971031073658 
C  -1.1139414512441688  0.3662003613993733  6.997589251667012 
H  -1.8874260803032934  0.6639470916883611  6.57373867279341 
C  -0.0012294792339029303  0.01760778777724681  6.251778152955998 
C  1.1238300622920079  -0.39484720275704643  6.966637865630354 
H  1.9037823944692933  -0.6282700536492545  6.515873656522569 
C  1.0739692608664713  -0.4561390969568644  8.341792298480208 
H  1.83694101078601  -0.732278554710867  8.797939860893997 
69

Ru  0.0  0.0  0.0 
O  0.05022038169542031  1.8745881039659333  1.1649815531365015e-14 
O  0.30359616618577323  -1.888956096894991  -1.6533037268060627e-14 
C  2.8082050650779227  1.0502576851745467  0.07425750388165234 
N  2.0461834521188065  0.014367992929057494  4.883221736695614e-15 
C  3.363308872354846  3.491053789161057  0.06458476327043328 
C  1.024116782184244  2.7680950604451326  0.0639051628445758 
C  0.6187866499392347  4.123079263526446  0.18858484560941893 
C  2.3786139213162727  2.4262356172936035  0.04754908717603004 
C  1.5371078844307635  5.113697362910157  0.24610433322324088 
C  2.9364798004140154  4.836344424487063  0.1806551292140262 
C  4.75543153734487  3.2612836944047543  -0.04194973431956112 
C  5.657548780653612  4.29586379136095  -0.015936808549026873 
C  3.8860292682831803  5.87885603905405  0.22755621195541745 
C  2.652358425651502  -1.3420321575926173  0.1080710096529726 
C  1.5908429885967634  -2.2738613216582637  -0.473032531801735 
C  5.225407912733722  5.615961317369532  0.14773420934805376 
O  3.4046505532765527  -2.9178301170374645  1.7742486519597076 
C  2.8540993611863836  -1.622850002631693  1.598566814020473 
C  3.9603915156753127  -1.5011751190433802  -0.6650079211318715 
H  3.7217279392319336  0.8972206131030683  0.15116395984722134 
H  -0.28644873225330447  4.329396196036741  0.2323436868448615 
H  1.250634333700283  5.994968564292411  0.3288095588510581 
H  5.066700808790731  2.3894916523691876  -0.13260780675119316 
H  6.565270366098258  4.117633916702992  -0.10756292435268415 
H  3.598506877634321  6.758615566776189  0.31359532084017583 
H  1.610144479325057  -2.2289971347791733  -1.4425433296742198 
H  1.7765261285442466  -3.187709419406771  -0.2091175345380745 
H  5.843084625793654  6.308385198331753  0.2021041202979029 
H  2.946303983696815  -3.339052692628074  2.3087654935721114 
H  3.450064877734529  -0.959249413135955  1.9787300825070646 
H  2.0016124871987984  -1.5650519383799444  2.0600255483051613 
H  4.202332994593056  -2.4289252560498054  -0.6942223707014812 
H  4.654288468651039  -1.0014393687935381  -0.22686294675326435 
H  3.8437361414473203  -1.172168579740151  -1.5594610449787496 
O  0.5389616174990914  -1.0980426834227526e-15  -1.9084628224995015 
C  -0.20916277876120437  0.0029788774590564656  -2.980929098896696 
C  0.402074710335821  -0.08079202443918172  -4.248073931943632 
C  -0.333111825029317  -0.1109326054081849  -5.39453448669321 
C  -1.7270542475275008  -0.06812345944078511  -5.356277594746115 
C  -2.352715930984116  0.017906408327009096  -4.153497656558686 
C  -1.626803840216898  0.024882610032150282  -2.94250427132169 
C  -2.3602727671281856  -0.016006635643170834  -1.7133539538894658 
O  -1.8989616174990913  -8.748339304415793e-17  -0.5715371775004984 
H  1.3580919378957121  -0.11559978821355801  -4.305319544786437 
H  0.11136792523205097  -0.16406605590010184  -6.241475805821287 
H  -2.239621314982129  -0.09904764567986257  -6.168641070086064 
H  -3.3083353300849563  0.07923598852698203  -4.12699281446101 
H  -3.3131597296778006  -0.06149555785286504  -1.7883161080686585 
N  0.0  0.0  1.96 
N  -0.00605157828302727  -0.1392210237152327  9.057728393292884 
C  -1.1280336022664137  -0.10658296564893459  2.6689945793807848 
H  -1.9290854573036673  -0.20436232589852377  2.2052764729297274 
C  -1.1758230663320433  -0.08158015682221803  4.040408184634537 
H  -1.9921832001920228  -0.1571395955614402  4.480720758905964 
C  -0.0030285584847690172  0.05812864234474879  4.7710733499452935 
C  1.1671495979751085  0.2142961977283609  4.036470275632595 
H  1.977032665552287  0.3415607412854321  4.474161402804473 
C  1.1260728720503208  0.1806936994422785  2.663690794180373 
H  1.9239402854072218  0.2904016516906975  2.198859893834207 
C  -1.066320027988871  0.2666747955881221  8.368192615808908 
H  -1.8295956477665407  0.5009100067757635  8.845971031073658 
C  -1.1139414512441688  0.3662003613993733  6.997589251667012 
H  -1.8874260803032934  0.6639470916883611  6.57373867279341 
C  -0.0012294792339029303  0.01760778777724681  6.251778152955998 
C  1.1238300622920079  -0.39484720275704643  6.966637865630354 
H  1.9037823944692933  -0.6282700536492545  6.515873656522569 
C  1.0739692608664713  -0.4561390969568644  8.341792298480208 
H  1.83694101078601  -0.732278554710867  8.797939860893997 
53

Ru  0.0  0.0  0.0 
N  1.948865964563366  0.018677316042558012  -9.182213068465722e-16 
N  0.17166920741955238  1.9545960814863743  -1.044280676335063e-15 
N  0.27946482801708195  -1.9732733975289323  1.9625019831816353e-15 
C  1.7541270340183892  3.7263108140319754  -0.07162020327356522 
H  2.654081465106052  4.017410872859601  -0.16698999784309848 
C  -0.2930111442988148  -4.2639367407947475  0.2980751733023804 
H  -0.9363130396606769  -4.9155796634317195  0.5470883512688921 
C  -0.6077608602160196  -2.9280681797153645  0.3405612163016574 
H  -1.4791631796445948  -2.668890350200958  0.617478587339843 
C  1.9007648741992966  -3.6622818538410145  -0.4322260574697286 
H  2.78157401747194  -3.8995762615988316  -0.6991375543636948 
C  0.968648609906998  -4.6500513079704024  -0.11001742113187596 
H  1.1962257100091527  -5.570062579874129  -0.17018537837808187 
C  2.4543754190274623  1.3077920339356923  -0.4873606627116255 
H  2.5951714426618286  1.268195721969222  -1.4664126132267166 
H  3.3213810089028444  1.5160921289345868  -0.056438561226575076 
C  1.526813121322883  -2.335669692575549  -0.357525454371558 
C  2.4559328317183904  -1.1926768946282578  -0.673886510121454 
H  3.369655481138663  -1.4003448286850209  -0.3546313471232787 
H  2.4927517684785476  -1.0458251361318422  -1.6519937777165585 
C  1.448362317358645  2.373806499473906  -0.1578658243090133 
C  -0.8107622574789273  2.8556680466968904  0.19229623056390424 
H  -1.7058620343531887  2.5485767361558738  0.2781822389112963 
C  -0.5612682307070365  4.211410179143266  0.26857310068124884 
H  -1.2689709600538415  4.83094934359166  0.3976640786373643 
C  0.7483109931453136  4.646241668397581  0.15164559148366297 
H  0.9537218642698482  5.570820698259024  0.22535062227757527 
H  2.2235826732084325  -0.04622386085881875  0.8556651840691166 
S  -2.0916923198639807  1.2524703496552547e-15  0.09169231986398074 
S  0.09169231986398119  0.0  -2.0916923198639807 
S  -5.379447502421723  0.11951315703010193  -5.364589325621507 
N  -5.518739955446762  0.121613012404194  -3.755165601694927 
N  -3.766328467255819  0.06121848484754325  -5.517623830163755 
C  -1.5785605395138327  0.018196630223030644  -2.596402730286448 
C  -2.5935523704890513  0.024432931072839947  -1.575874488832393 
C  -3.915020022973564  0.059187519349002196  -1.9211315409411642 
H  -4.567706413240149  0.06926697339289423  -1.258386876257315 
C  -4.2873168002358994  0.07976740211990384  -3.258748350070463 
C  -3.2784631482914084  0.04766010142917676  -4.274299230233848 
C  -1.931436955429204  0.033487210106451754  -3.916977155776195 
H  -1.275731519769312  0.033486081781934254  -4.576204333344607 
C  0.0  0.0  2.0 
C  -0.9124865147059713  -0.7122092913744189  2.739727095461359 
F  -1.8448270039732542  -1.4547529731920066  2.100805368905101 
F  -1.8451953647226929  -1.4653104244205368  4.788969278441482 
C  -0.9262182873657996  -0.7187232041470502  4.146971199147713 
C  -0.00028270141310473423  -0.005375990368315348  4.856348823026956 
H  0.004356452228095081  -0.011184858960140327  5.806285697402919 
F  1.8609650532354254  1.4290797311227512  4.826965513183806 
C  0.9143019419953454  0.7124643534860439  4.153931097754812 
F  1.8406972483717037  1.4891023010794084  2.1792329120358342 
C  0.9086891763502485  0.7369103567742636  2.7811845152476664 
53

Ru  0.0  0.0  0.0 
N  1.948865964563366  0.018677316042558012  -9.182213068465722e-16 
N  0.17166920741955238  1.9545960814863743  -1.044280676335063e-15 
N  0.27946482801708195  -1.9732733975289323  1.9625019831816353e-15 
C  1.7541270340183892  3.7263108140319754  -0.07162020327356522 
H  2.654081465106052  4.017410872859601  -0.16698999784309848 
C  -0.2930111442988148  -4.2639367407947475  0.2980751733023804 
H  -0.9363130396606769  -4.9155796634317195  0.5470883512688921 
C  -0.6077608602160196  -2.9280681797153645  0.3405612163016574 
H  -1.4791631796445948  -2.668890350200958  0.617478587339843 
C  1.9007648741992966  -3.6622818538410145  -0.4322260574697286 
H  2.78157401747194  -3.8995762615988316  -0.6991375543636948 
C  0.968648609906998  -4.6500513079704024  -0.11001742113187596 
H  1.1962257100091527  -5.570062579874129  -0.17018537837808187 
C  2.4543754190274623  1.3077920339356923  -0.4873606627116255 
H  2.5951714426618286  1.268195721969222  -1.4664126132267166 
H  3.3213810089028444  1.5160921289345868  -0.056438561226575076 
C  1.526813121322883  -2.335669692575549  -0.357525454371558 
C  2.4559328317183904  -1.1926768946282578  -0.673886510121454 
H  3.369655481138663  -1.4003448286850209  -0.3546313471232787 
H  2.4927517684785476  -1.0458251361318422  -1.6519937777165585 
C  1.448362317358645  2.373806499473906  -0.1578658243090133 
C  -0.8107622574789273  2.8556680466968904  0.19229623056390424 
H  -1.7058620343531887  2.5485767361558738  0.2781822389112963 
C  -0.5612682307070365  4.211410179143266  0.26857310068124884 
H  -1.2689709600538415  4.83094934359166  0.3976640786373643 
C  0.7483109931453136  4.646241668397581  0.15164559148366297 
H  0.9537218642698482  5.570820698259024  0.22535062227757527 
H  2.2235826732084325  -0.04622386085881875  0.8556651840691166 
S  0.6736984766313364  -1.0831390002892777e-15  -1.9823507775075069 
S  -2.0336984766313364  -1.301426517932617e-16  -0.497649222492493 
S  -3.6437604519185633  -0.11951315703010183  -6.666354613498877 
N  -2.0597117901020354  -0.1216130124041938  -6.349436725703471 
N  -4.242346906125574  -0.061218484847543275  -5.160610001011438 
C  -2.0505496700111165  -0.018196630223030672  -2.242410882413485 
C  -0.7866448455421624  -0.024432931072839836  -2.93105513254256 
C  -0.7480806728709191  -0.059187519349002  -4.296336053518147 
H  0.07090639450022018  -0.06926697339289394  -4.737346482062591 
C  -1.927949712001592  -0.0797674021199037  -5.028273666246193 
C  -3.1853575795028988  -0.04766010142917675  -4.34412840682523 
C  -3.21949572202497  -0.03348721010645183  -2.950933080829371 
H  -4.035951334475415  -0.03348608178193443  -2.50603947231503 
C  0.0  0.0  2.0 
C  -0.9124865147059713  -0.7122092913744189  2.739727095461359 
F  -1.8448270039732542  -1.4547529731920066  2.100805368905101 
F  -1.8451953647226929  -1.4653104244205368  4.788969278441482 
C  -0.9262182873657996  -0.7187232041470502  4.146971199147713 
C  -0.00028270141310473423  -0.005375990368315348  4.856348823026956 
H  0.004356452228095081  -0.011184858960140327  5.806285697402919 
F  1.8609650532354254  1.4290797311227512  4.826965513183806 
C  0.9143019419953454  0.7124643534860439  4.153931097754812 
F  1.8406972483717037  1.4891023010794084  2.1792329120358342 
C  0.9086891763502485  0.7369103567742636  2.7811845152476664 
92

Ru  0.0  0.0  0.0 
N  1.7581654536285596  -0.011165230031932538  3.635980405647387e-15 
O  0.43803118185189305  2.1599734952642398  3.6082248300317583e-16 
O  4.156913445810303  7.317034114606519  -0.11231943395771056 
H  4.9526529863586  7.259511893820127  -0.3006015035336203 
N  0.2038033645195475  -2.148808265232307  -4.0800696154974495e-15 
N  2.5101461369022076  1.1407697626813524  0.031230506655179843 
C  1.5343657009401963  -2.3370138525561317  -0.02257577903230631 
C  3.614342592857012  6.066779164877112  -0.036596450639219645 
C  -0.6142053424596401  -3.24026335333207  -0.05962454165339922 
C  1.6943765015198573  2.220892658161972  0.011819616755198518 
C  -0.09807353694580723  -4.556520256445149  -0.08857129180252217 
C  2.392568162248677  3.545999495452767  0.015095994926470983 
C  -1.0165713445291746  -5.653568720733223  -0.05693864304015513 
H  -0.6938245760849842  -6.525237240953408  -0.044075738392154916 
C  2.3603448159466467  -1.139200637218169  -0.0010127844607340228 
H  3.288883860765334  -1.192115645786499  0.01172747124370002 
C  2.250457814467994  5.9398815809061585  0.11687320258602342 
H  1.7273995306909005  6.703516743474133  0.20658100749696817 
C  -2.3505653101076893  -5.432248888841324  -0.04586246087072773 
H  -2.9368715822315075  -6.153573498522647  -0.040468692581236164 
C  -2.0061093358373414  -3.0759951648630697  -0.06127544332292897 
H  -2.3584516016131225  -2.2149067932303828  -0.07525950521340781 
C  1.655688926924509  4.704892461605701  0.13989353316069575 
H  0.7337004504113938  4.647193082672174  0.24264941302998155 
C  1.3044015361301111  -4.730968556918593  -0.1234801712263059 
H  1.6704098953191486  -5.585617718512209  -0.16029418474122809 
C  3.7482150532833156  3.6731730187589067  -0.12942317957303445 
H  4.269220140486105  2.907202747381268  -0.21545516475576937 
C  4.362336840992677  4.916455775198918  -0.15038904229275657 
H  5.285862132575007  4.97371836133487  -0.24315655835734257 
C  2.1053536218926956  -3.6450543493201955  -0.10050300759566795 
H  3.029090543825908  -3.7469277389260602  -0.13648191179754005 
C  -2.8559856690780068  -4.135552588568952  -0.0435011903947918 
H  -3.7746599663597458  -3.9937401461069775  -0.0283240142123696 
C  -2.547036419792463  0.3347459063256002  -1.6609083366563535 
C  -1.813477648237742  0.9397577454548491  -2.724060434518458 
H  -2.268898508317824  1.3528211426928534  -3.3772119943161396 
C  -0.491346676677316  0.8015672698457066  -2.9950363494843892 
C  -2.714292846187978  -0.7172080284120178  0.5036750105538058 
C  -3.9628863761742643  -0.30770038437549413  0.9730898551763874 
H  -4.381645649780056  0.41159239896112026  0.5969976954481886 
C  -4.541462095736745  -0.9701806967963333  2.034674096952605 
H  -5.364025210585683  -0.6997539264924996  2.3341240159591994 
C  -3.9036894947418546  -2.0316633058173754  2.634652088354021 
H  -4.320279191706666  -2.3924691351567984  3.421616857512959 
C  -2.6737089133911613  -2.4403132224904427  2.1707709989536355 
H  -2.297902600780443  -3.2313949773240447  2.580661926605506 
C  -2.082095467520612  -1.779585270920005  1.110725238300475 
H  -1.2014491689086548  -2.004885484406635  0.8418934125358462 
C  -3.970963189073567  0.04766757506448967  -2.012084129451133 
C  -4.420396854542433  -1.2498838941422652  -2.1633666304307386 
H  -3.8903351880075885  -1.9711548624193453  -1.95188918484622 
C  -5.706213503943327  -1.503960104139382  -2.618144811126398 
H  -5.999173011191433  -2.5006742698157054  -2.6436810413316545 
C  -6.528131192761492  -0.45750718581964944  -2.9182128409927617 
H  -7.291161933856995  -0.5245248203170312  -3.1455754694293905 
C  -6.107662343939196  0.8360568618040244  -2.7465934310604574 
H  -6.5966983523994625  1.6366509335006514  -2.924959388556408 
C  -4.831290974161968  1.098148172362874  -2.298425458819656 
H  -4.554143241599325  1.97927947236635  -2.2290754300556253 
C  0.07038545228545656  1.3156742674189041  -4.2643393985382305 
C  -0.6463407730161956  1.287214803828689  -5.457022791940292 
H  -1.4370289211986123  0.854119048902743  -5.47459491159085 
C  -0.1135872644013991  1.807500700864449  -6.62079124588824 
H  -0.5633346646081856  1.6668401934921122  -7.462175930603299 
C  1.1289179018585647  2.367967807021808  -6.638985605810201 
H  1.4812090448812796  2.799356004221209  -7.458623686834235 
C  1.8765710662766524  2.382564746698718  -5.482434675203282 
H  2.7413865205866985  2.765698070767507  -5.559347781853506 
C  1.3451338635806873  1.8622469814085783  -4.319210576968408 
H  1.8592356506836742  1.9770181731947576  -3.542131072648855 
S  0.6338927633296422  -5.01205505095296e-16  -1.9605218379549647 
N  -1.9938927633296413  3.183495977429801e-16  -0.5194781620450357 
O  0.0  0.0  1.88 
O  -0.9643081704186061  2.053352268274857  2.67998456537262 
O  -2.318180286692342  0.02273109212612745  2.6505293153681833 
S  -1.0021217599780776  0.6053161117679227  2.7851056474316147 
C  -0.4338361697801144  0.21796534675078238  4.42098554608371 
C  0.9286966330522985  0.0969703896118565  4.673289393760669 
H  1.5549199220000627  0.1864191380527226  3.964259518662442 
C  1.3701466961187259  -0.15620349792040483  5.9660683093105975 
H  2.300334591268412  -0.2465666142953437  6.135427710927412 
C  0.4626272672075892  -0.27973766600612004  7.020024648759331 
C  -0.9006441434867848  -0.18364884418769545  6.745229271969766 
H  -1.5306119547409929  -0.29156924044088006  7.449036429404342 
C  -1.350067444090275  0.06821236621892213  5.453505989851194 
H  -2.2807689197617753  0.13760087737159776  5.2773376110117844 
C  0.9602338724211013  -0.5186618523319394  8.424949223117835 
H  1.0921125068317559  0.34142448983836726  8.875110549531026 
H  1.8106676596937854  -1.0043671913790688  8.391979735919048 
H  0.30079970035523473  -1.0492371734517043  8.919032304522636 
92

Ru  0.0  0.0  0.0 
N  1.7581654536285596  0.011165230031932538  -3.637347751969422e-15 
O  0.43803118185189305  -2.1599734952642398  -9.630202028132864e-17 
O  4.156913445810303  -7.317034114606519  0.11231943395771146 
H  4.9526529863586  -7.259511893820127  0.3006015035336212 
N  0.2038033645195475  2.148808265232307  3.816916499097637e-15 
N  2.5101461369022076  -1.1407697626813524  -0.031230506655179704 
C  1.5343657009401963  2.3370138525561317  0.022575779032306027 
C  3.614342592857012  -6.066779164877112  0.03659645063922039 
C  -0.6142053424596401  3.24026335333207  0.059624541653398824 
C  1.6943765015198573  -2.220892658161972  -0.011819616755198246 
C  -0.09807353694580723  4.556520256445149  0.08857129180252162 
C  2.392568162248677  -3.545999495452767  -0.01509599492647055 
C  -1.0165713445291746  5.653568720733223  0.05693864304015444 
H  -0.6938245760849842  6.525237240953408  0.04407573839215412 
C  2.3603448159466467  1.139200637218169  0.0010127844607338834 
H  3.288883860765334  1.192115645786499  -0.011727471243700166 
C  2.250457814467994  -5.9398815809061585  -0.1168732025860227 
H  1.7273995306909005  -6.703516743474133  -0.20658100749696734 
C  -2.3505653101076893  5.432248888841324  0.04586246087072706 
H  -2.9368715822315075  6.153573498522647  0.04046869258123541 
C  -2.0061093358373414  3.0759951648630697  0.06127544332292859 
H  -2.3584516016131225  2.2149067932303828  0.07525950521340753 
C  1.655688926924509  -4.704892461605701  -0.13989353316069517 
H  0.7337004504113938  -4.647193082672174  -0.24264941302998097 
C  1.3044015361301111  4.730968556918593  0.12348017122630532 
H  1.6704098953191486  5.585617718512209  0.1602941847412274 
C  3.7482150532833156  -3.6731730187589067  0.1294231795730349 
H  4.269220140486105  -2.907202747381268  0.21545516475576973 
C  4.362336840992677  -4.916455775198918  0.15038904229275718 
H  5.285862132575007  -4.97371836133487  0.24315655835734318 
C  2.1053536218926956  3.6450543493201955  0.1005030075956675 
H  3.029090543825908  3.7469277389260602  0.13648191179753957 
C  -2.8559856690780068  4.135552588568952  0.04350119039479129 
H  -3.7746599663597458  3.9937401461069775  0.02832401421236911 
C  -2.547036419792463  0.3347459063256002  -1.6609083366563535 
C  -1.813477648237742  0.9397577454548491  -2.724060434518458 
H  -2.268898508317824  1.3528211426928534  -3.3772119943161396 
C  -0.491346676677316  0.8015672698457066  -2.9950363494843892 
C  -2.714292846187978  -0.7172080284120178  0.5036750105538058 
C  -3.9628863761742643  -0.30770038437549413  0.9730898551763874 
H  -4.381645649780056  0.41159239896112026  0.5969976954481886 
C  -4.541462095736745  -0.9701806967963333  2.034674096952605 
H  -5.364025210585683  -0.6997539264924996  2.3341240159591994 
C  -3.9036894947418546  -2.0316633058173754  2.634652088354021 
H  -4.320279191706666  -2.3924691351567984  3.421616857512959 
C  -2.6737089133911613  -2.4403132224904427  2.1707709989536355 
H  -2.297902600780443  -3.2313949773240447  2.580661926605506 
C  -2.082095467520612  -1.779585270920005  1.110725238300475 
H  -1.2014491689086548  -2.004885484406635  0.8418934125358462 
C  -3.970963189073567  0.04766757506448967  -2.012084129451133 
C  -4.420396854542433  -1.2498838941422652  -2.1633666304307386 
H  -3.8903351880075885  -1.9711548624193453  -1.95188918484622 
C  -5.706213503943327  -1.503960104139382  -2.618144811126398 
H  -5.999173011191433  -2.5006742698157054  -2.6436810413316545 
C  -6.528131192761492  -0.45750718581964944  -2.9182128409927617 
H  -7.291161933856995  -0.5245248203170312  -3.1455754694293905 
C  -6.107662343939196  0.8360568618040244  -2.7465934310604574 
H  -6.5966983523994625  1.6366509335006514  -2.924959388556408 
C  -4.831290974161968  1.098148172362874  -2.298425458819656 
H  -4.554143241599325  1.97927947236635  -2.2290754300556253 
C  0.07038545228545656  1.3156742674189041  -4.2643393985382305 
C  -0.6463407730161956  1.287214803828689  -5.457022791940292 
H  -1.4370289211986123  0.854119048902743  -5.47459491159085 
C  -0.1135872644013991  1.807500700864449  -6.62079124588824 
H  -0.5633346646081856  1.6668401934921122  -7.462175930603299 
C  1.1289179018585647  2.367967807021808  -6.638985605810201 
H  1.4812090448812796  2.799356004221209  -7.458623686834235 
C  1.8765710662766524  2.382564746698718  -5.482434675203282 
H  2.7413865205866985  2.765698070767507  -5.559347781853506 
C  1.3451338635806873  1.8622469814085783  -4.319210576968408 
H  1.8592356506836742  1.9770181731947576  -3.542131072648855 
S  0.6338927633296422  -5.01205505095296e-16  -1.9605218379549647 
N  -1.9938927633296413  3.183495977429801e-16  -0.5194781620450357 
O  0.0  0.0  1.88 
O  -0.9643081704186061  2.053352268274857  2.67998456537262 
O  -2.318180286692342  0.02273109212612745  2.6505293153681833 
S  -1.0021217599780776  0.6053161117679227  2.7851056474316147 
C  -0.4338361697801144  0.21796534675078238  4.42098554608371 
C  0.9286966330522985  0.0969703896118565  4.673289393760669 
H  1.5549199220000627  0.1864191380527226  3.964259518662442 
C  1.3701466961187259  -0.15620349792040483  5.9660683093105975 
H  2.300334591268412  -0.2465666142953437  6.135427710927412 
C  0.4626272672075892  -0.27973766600612004  7.020024648759331 
C  -0.9006441434867848  -0.18364884418769545  6.745229271969766 
H  -1.5306119547409929  -0.29156924044088006  7.449036429404342 
C  -1.350067444090275  0.06821236621892213  5.453505989851194 
H  -2.2807689197617753  0.13760087737159776  5.2773376110117844 
C  0.9602338724211013  -0.5186618523319394  8.424949223117835 
H  1.0921125068317559  0.34142448983836726  8.875110549531026 
H  1.8106676596937854  -1.0043671913790688  8.391979735919048 
H  0.30079970035523473  -1.0492371734517043  8.919032304522636 
