72
unq_CSD-PACREQ-06-a-0 rssd=0.490 change:1.863->6_trigonal_prismatic idc=(25, 26, 28, 30, 29, 27)
C       0.877914018570302     -1.348119348874679      2.037100384661359
C       1.336393830615898     -2.098167898913957      3.126850197476489
C       2.194589735808292     -3.153785973685205      2.912812680841553
C       2.572511378953530     -3.455817578501861      1.619343542696278
C       2.075094902710489     -2.700690347444064      0.570807237136504
C       1.675494584992092      2.005189212243733     -0.017334034831331
C       2.661450822477679      3.002810765691915     -0.058176584444492
C       3.963296615398550      2.679719008365707     -0.387908229577457
C       4.247597298908069      1.358152578535855     -0.723587872842879
C       3.247526837062233      0.414755722317089     -0.686572970168355
C      -2.423289434724742     -0.950055721704852      0.057368643066735
C      -3.702068362530322     -1.548386126858576      0.100451935292242
C      -3.803205263613165     -2.921550753618523      0.015261941428084
C      -2.647039046285703     -3.677610178083913     -0.137331225482391
C      -1.429750127898031     -3.054478924862650     -0.182877580215485
C      -1.589959350221807      2.083535397761435      2.332027808778735
C       1.257370689174454      3.182620704562278      2.917529299063930
C      -0.586582136009602      4.826619737209063      1.275730453543511
C      -2.430583846200689     -0.699953482376659      3.548916682467631
C      -0.168917968039873      0.768237638172137      4.791361304615734
C      -2.887144483249065      3.063915607900390     -0.409755354460284
C      -4.492460163038892      1.467914552805351      1.516292633092583
C       2.718229169445536     -3.968195248141527      4.070889507835164
C       5.028274697965175      3.727487152417110     -0.419914634620667
C      -5.158243147918515     -3.615244317189230      0.085533642402610
N       0.352215102588745      2.076441586101583      0.319871022470529
N       2.006188968516907      0.740508572621127     -0.319767753964792
N       0.047784692710779     -0.247911131311073      2.003194185323680
N       1.258340250060710     -1.663368828248884      0.772318435806814
N      -2.031336051648986      0.366588216197185      0.138669481200716
N      -1.326603082781559     -1.726991959945631     -0.088828098243809
Si     -0.147480575395090      3.052845577849190      1.682065033727227
Si     -1.028883520133369      0.480819293131281      3.152446824190807
Si     -2.764598882548224      1.741234351101983      0.900350644557756
H       1.062950392786797     -1.886270343527695      3.989211033976807
H       3.156442532854060     -4.161632831724266      1.454520680741427
H       2.318349671677437     -2.922804629561960     -0.299304906816266
H       2.437949776575663      3.884141974689293      0.139245457202141
H       5.110366366208837      1.115683304068206     -0.971771469093909
H       3.440222213345398     -0.465340379538688     -0.919713707615409
H      -4.465211857379262     -1.024894662139331      0.183540759064427
H      -2.699668242728650     -4.602259502844778     -0.209053982687095
H      -0.659612742692350     -3.566062515174366     -0.280764647963643
H      -2.059208194713086      2.629556176348046      2.998216439194528
H       1.976030736416978      3.689099760414844      2.532824097019475
H       1.570013756856760      2.302442249712481      3.139518262412158
H       0.945769122316441      3.620460627549139      3.711607680189177
H       0.190752295347153      5.280387945318802      0.944425374898242
H      -0.900801945380912      5.265701556201953      2.068885525158484
H      -1.275267909054191      4.839461358456032      0.607703463991649
H      -2.918114027494821     -0.899359877355478      2.745383576759557
H      -3.019490943891979     -0.294300089726553      4.189168863502792
H      -2.071266070436606     -1.512969837961467      3.912984370640516
H       0.568556178525574      1.369617398401765      4.665179304577219
H       0.155378743910485     -0.068992002449519      5.133511376196491
H      -0.789484660933436      1.149717278741913      5.416148695255062
H      -2.013035135309907      3.246234055289714     -0.764598124693700
H      -3.249004575287094      3.865773825030546     -0.023652980197862
H      -3.462550745148004      2.762916226683584     -1.116405491568166
H      -4.485798497402056      0.791103529250158      2.197244393942877
H      -5.050570321035638      1.186432048313809      0.788330614024268
H      -4.834371656873103      2.287955316895166      1.882023252011824
H       3.296880541953653     -4.658079534031922      3.739771762650808
H       1.982304256644442     -4.367156835292741      4.540603170289737
H       3.208075571047813     -3.396986459677733      4.666762541978366
H       5.864543236176752      3.328462795575718     -0.668293527936476
H       5.109404730132685      4.127308162097614      0.449325860350983
H       4.793741563458471      4.404051605056684     -1.060894369279240
H      -5.037040614443929     -4.564696511943839      0.013414256971233
H      -5.712960187182061     -3.307603509517427     -0.635966967303111
H      -5.580769177682471     -3.410287200087858      0.923206200340019
Cu      0.000000000000000      0.000000000000000      0.000000000000000
