47
unq_CSD-PADWIB-06-a-0 rssd=0.218 change:5.933->6_pentagonal_pyramidal idc=(1, 4, 7, 10, 13, 16)
C      -1.117344533989451      3.310019250240513      0.805948208882633
O      -0.087784713429179      2.691210462004512      0.129564745535256
C       1.124906619225031      3.435482382960036      0.007211407278666
C       2.017998223435306      2.642550178362105     -0.903973763474558
O       2.235428219795037      1.375672733483559     -0.283958702092164
C       3.182519880771166      0.579159649361799     -1.005772066149881
C       3.469146312832320     -0.621695233527185     -0.176302344770264
O       2.224743345351849     -1.250675010384984      0.119273491234151
C       2.341660267167667     -2.621237184694939      0.425548710185804
C       1.030575859622582     -3.113920903037008      0.935132069385049
O       0.019121772517907     -2.648801267117315      0.051128809232022
C      -1.256138287556735     -3.246630466119119      0.292939309416111
C      -2.238579074013396     -2.572402132444146     -0.611517823441100
O      -2.304007729572145     -1.205853984929683     -0.205534447480255
C      -3.276546792008891     -0.451349734752580     -0.935568178549815
C      -3.562460895684740      0.783684184508670     -0.132335806447301
O      -2.305745989143153      1.450265871693645      0.048817465634105
C      -2.332760020753563      2.625655551541419      0.761153427525331
C      -3.447791666468928      3.151927754122066      1.395108510984878
C      -3.340233442383494      4.365725760366374      2.069557292189893
C      -2.141176557099651      5.039571154857173      2.118994425773327
C      -1.015484961637146      4.507298483429300      1.491317864831215
H       0.912182832710994      4.275884280444164     -0.412334706225209
H       1.545290039087976      3.578441211426392      0.888882827745419
H       1.596088420968389      2.494301503820691     -1.759541971789384
H       2.793411217742379      3.101141497113762     -0.980741925008842
H       2.753345457964666      0.296963162520235     -1.858019300010449
H       3.910779495252613      1.018325311116768     -1.113002870728842
H       3.973722018412994     -1.260316168515977     -0.621580144275029
H       3.867784745723939     -0.326970804341938      0.638112046472392
H       2.627790273835813     -3.117110142158316     -0.413994623621695
H       3.004447307261874     -2.826037300548908      1.070027842531733
H       0.969370934418008     -4.095331802460272      1.053855207921402
H       0.841202464526971     -2.758478380720853      1.798614304616031
H      -1.238894620705859     -4.159539972730257      0.108408367044529
H      -1.508336547146883     -3.108888570447395      1.201528346350005
H      -1.989441294032462     -2.583584608476661     -1.507482805354988
H      -3.095401514374967     -3.033412939385568     -0.531586092720058
H      -2.904045447430160     -0.202082834005510     -1.844937751649216
H      -4.124169832991111     -1.006955169939820     -0.993819794720120
H      -4.132634418338321      1.380003881002356     -0.622365288864927
H      -3.903928692989658      0.580030337554420      0.698965025998127
H      -4.245292452839374      2.673031004595628      1.419630726046579
H      -4.076769092200302      4.771552053539579      2.533897594466390
H      -2.075600905422884      5.859434587820755      2.494446107346784
H      -0.245386195626645      4.933164607917808      1.553062051620289
Cu      0.000000000000000      0.000000000000000      0.000000000000000
47
unq_CSD-PADWIB-06-a-1 rssd=0.218 change:5.933->6_pentagonal_pyramidal idc=(1, 16, 13, 10, 7, 4)
C       1.117344533989449      3.310019250240513     -0.805948208882634
O       0.087784713429177      2.691210462004512     -0.129564745535257
C      -1.124906619225033      3.435482382960036     -0.007211407278668
C      -2.017998223435308      2.642550178362103      0.903973763474556
O      -2.235428219795037      1.375672733483557      0.283958702092162
C      -3.182519880771166      0.579159649361797      1.005772066149879
C      -3.469146312832320     -0.621695233527187      0.176302344770263
O      -2.224743345351848     -1.250675010384986     -0.119273491234151
C      -2.341660267167665     -2.621237184694940     -0.425548710185804
C      -1.030575859622580     -3.113920903037009     -0.935132069385048
O      -0.019121772517906     -2.648801267117315     -0.051128809232020
C       1.256138287556737     -3.246630466119118     -0.292939309416109
C       2.238579074013397     -2.572402132444144      0.611517823441102
O       2.304007729572146     -1.205853984929681      0.205534447480257
C       3.276546792008892     -0.451349734752577      0.935568178549816
C       3.562460895684739      0.783684184508672      0.132335806447302
O       2.305745989143152      1.450265871693646     -0.048817465634105
C       2.332760020753562      2.625655551541420     -0.761153427525331
C       3.447791666468927      3.151927754122067     -1.395108510984878
C       3.340233442383492      4.365725760366374     -2.069557292189893
C       2.141176557099647      5.039571154857172     -2.118994425773328
C       1.015484961637144      4.507298483429299     -1.491317864831216
H      -0.912182832710996      4.275884280444163      0.412334706225207
H      -1.545290039087978      3.578441211426390     -0.888882827745421
H      -1.596088420968391      2.494301503820690      1.759541971789382
H      -2.793411217742381      3.101141497113760      0.980741925008839
H      -2.753345457964667      0.296963162520235      1.858019300010447
H      -3.910779495252614      1.018325311116766      1.113002870728839
H      -3.973722018412994     -1.260316168515979      0.621580144275028
H      -3.867784745723939     -0.326970804341941     -0.638112046472393
H      -2.627790273835811     -3.117110142158316      0.413994623621696
H      -3.004447307261871     -2.826037300548911     -1.070027842531732
H      -0.969370934418005     -4.095331802460272     -1.053855207921400
H      -0.841202464526969     -2.758478380720855     -1.798614304616029
H       1.238894620705862     -4.159539972730256     -0.108408367044526
H       1.508336547146885     -3.108888570447394     -1.201528346350002
H       1.989441294032463     -2.583584608476658      1.507482805354989
H       3.095401514374969     -3.033412939385565      0.531586092720060
H       2.904045447430160     -0.202082834005507      1.844937751649217
H       4.124169832991112     -1.006955169939817      0.993819794720122
H       4.132634418338320      1.380003881002359      0.622365288864927
H       3.903928692989658      0.580030337554422     -0.698965025998126
H       4.245292452839373      2.673031004595630     -1.419630726046579
H       4.076769092200300      4.771552053539579     -2.533897594466391
H       2.075600905422881      5.859434587820754     -2.494446107346786
H       0.245386195626643      4.933164607917806     -1.553062051620291
Cu      0.000000000000000      0.000000000000000      0.000000000000000
39
unq_CSD-PASZIT-06-a-0 rssd=0.782 change:1.363->6_pentagonal_pyramidal idc=(0, 2, 3, 4, 5, 6)
O       0.167708269404778      2.480483832538556     -0.322202021856002
H      -0.353781311941080      2.922786928374395     -0.953951741255824
O       2.242105922147900      1.142298993434088      0.573193452046327
O       2.185376139268714     -1.277350293458453     -0.515523770273088
O      -0.165892517672621     -2.466140987559626     -0.528519481248014
O      -2.084230925285511     -1.315119145822145      0.782645955956800
O      -2.292313255282834      0.876542986961639     -0.716189892181523
H      -2.362080738209439      1.559612843111054     -1.342098128224238
C       1.100579983389237      3.192151688129865      0.506297778123313
H       0.791969987559830      3.191651571094805      1.425930025468482
H       1.172158613847533      4.111176467875826      0.209674829121381
C       2.393041958715008      2.538084424281391      0.418034327597196
H       2.795059098486020      2.727461058972541     -0.445204422438615
H       2.981114438188831      2.882770394511679      1.106869838304879
C       3.477273366889312      0.441551680274913      0.323034449507598
H       3.895238341699886      0.826592130628562     -0.462628545308280
H       4.072681042371918      0.587147639788857      1.074610318299041
C       3.351801624889023     -0.866231981519771      0.132961842585142
H       3.390883283373938     -1.304164653446386      0.998204721104975
H       4.111741203274958     -1.174765061035675     -0.382725840074666
C       2.095618074546879     -2.693627008349553     -0.840843930537809
H       2.785213463080549     -2.923291238378556     -1.483556254644233
H       2.240633876500167     -3.221857635173925     -0.040539612126008
C       0.824699759287709     -2.990127500574510     -1.380268349756247
H       0.741446932161810     -2.597337893464769     -2.265336251853098
H       0.716345981649997     -3.950162751117877     -1.462022778295451
C      -1.205002812302099     -3.339317149353918     -0.100739706049107
H      -0.838669824492881     -4.202690784980100      0.150586391577861
H      -1.848452792774088     -3.472089543421645     -0.814923956788454
C      -1.848006695390783     -2.714136843805133      1.047529692605583
H      -2.690443184762702     -3.158749004598160      1.232550901794349
H      -1.280281074656828     -2.806198217897070      1.828981900333317
C      -3.311453192203366     -1.107054640038035      0.092413850782161
H      -4.052146514992765     -1.436048607340852      0.626869490712692
H      -3.305080722081822     -1.585948506423404     -0.751349715842414
C      -3.461166828534664      0.300985631556324     -0.142443724494740
H      -4.214132258523206      0.445994697114371     -0.737323251918699
H      -3.656239224764328      0.744479812633086      0.698752710103190
Cu      0.000000000000000      0.000000000000000      0.000000000000000
39
unq_CSD-PASZIT-06-a-1 rssd=0.782 change:1.363->6_pentagonal_pyramidal idc=(0, 6, 5, 4, 3, 2)
O      -0.167708269404779      2.480483832538555      0.322202021856002
H       0.353781311941079      2.922786928374395      0.953951741255824
O      -2.242105922147901      1.142298993434087     -0.573193452046327
O      -2.185376139268714     -1.277350293458453      0.515523770273088
O       0.165892517672621     -2.466140987559626      0.528519481248014
O       2.084230925285512     -1.315119145822145     -0.782645955956800
O       2.292313255282834      0.876542986961639      0.716189892181523
H       2.362080738209439      1.559612843111054      1.342098128224237
C      -1.100579983389238      3.192151688129865     -0.506297778123313
H      -0.791969987559830      3.191651571094805     -1.425930025468482
H      -1.172158613847534      4.111176467875826     -0.209674829121382
C      -2.393041958715008      2.538084424281390     -0.418034327597196
H      -2.795059098486021      2.727461058972541      0.445204422438615
H      -2.981114438188832      2.882770394511679     -1.106869838304879
C      -3.477273366889312      0.441551680274913     -0.323034449507598
H      -3.895238341699886      0.826592130628562      0.462628545308280
H      -4.072681042371919      0.587147639788856     -1.074610318299041
C      -3.351801624889023     -0.866231981519771     -0.132961842585142
H      -3.390883283373937     -1.304164653446386     -0.998204721104974
H      -4.111741203274958     -1.174765061035675      0.382725840074666
C      -2.095618074546879     -2.693627008349553      0.840843930537809
H      -2.785213463080549     -2.923291238378556      1.483556254644233
H      -2.240633876500167     -3.221857635173925      0.040539612126009
C      -0.824699759287708     -2.990127500574510      1.380268349756248
H      -0.741446932161809     -2.597337893464769      2.265336251853098
H      -0.716345981649997     -3.950162751117877      1.462022778295452
C       1.205002812302100     -3.339317149353918      0.100739706049107
H       0.838669824492882     -4.202690784980100     -0.150586391577860
H       1.848452792774089     -3.472089543421645      0.814923956788454
C       1.848006695390784     -2.714136843805133     -1.047529692605583
H       2.690443184762703     -3.158749004598160     -1.232550901794349
H       1.280281074656828     -2.806198217897070     -1.828981900333317
C       3.311453192203367     -1.107054640038035     -0.092413850782161
H       4.052146514992765     -1.436048607340851     -0.626869490712692
H       3.305080722081822     -1.585948506423404      0.751349715842414
C       3.461166828534664      0.300985631556324      0.142443724494740
H       4.214132258523206      0.445994697114371      0.737323251918699
H       3.656239224764328      0.744479812633086     -0.698752710103190
Cu      0.000000000000000      0.000000000000000      0.000000000000000
