97

Ru  0.0  0.0  0.0 
C  2.2958673991922427  -3.6784333390877872  -0.23228452268039684 
H  2.6575820037309352  -3.954762123020604  0.6134099895600612 
H  3.002419674790959  -3.6252743839308152  -0.8805900273098843 
H  1.640647392624817  -4.317080366509079  -0.5248132517989756 
C  1.6532532007607106  -2.336145439946986  -0.08404037340504047 
C  2.4873533241093977  -1.1428935887782021  -0.03304759046494484 
C  3.874213207042308  -1.1353965109576403  -0.0283328332638065 
H  4.351581340854784  -1.9330047868830842  -0.052890377840467656 
C  4.537474930837093  0.08624359055061026  0.014730354445398039 
H  5.466837659677617  0.11002542173678133  0.06751153241185423 
C  3.8210810103682142  1.2605567202775392  -0.0196464410157348 
H  4.2650561823039865  2.07942986314156  -0.027659717536748365 
C  2.4337082559764864  1.220033035138889  -0.04449078271143073 
C  1.543881616273525  2.3589687482180057  -0.14558407006473942 
C  2.1021450031755213  3.7049186553265367  -0.50785863223996 
H  2.4647853801027604  3.6730280052237747  -1.3962509349182832 
H  2.796723471435929  3.9411687891892275  0.11152027899199883 
H  1.4037897880732777  4.361982520688999  -0.4707532367503825 
C  -0.6630877350940234  3.163339517624422  -0.2911109660284409 
C  -1.0402596091051697  3.375821856655402  -1.629617982466847 
C  -1.9519777176970112  4.387037897081779  -1.899851622212374 
H  -2.211780898360078  4.540548284014917  -2.77973374978458 
C  -2.4824165224606167  5.175174613345327  -0.8938748178683253 
H  -3.0945585423893514  5.8456968715265285  -1.096026787240752 
C  -2.095865589041777  4.955885557166718  0.4137524018366327 
H  -2.4530278892394195  5.48669443461761  1.0889219264279402 
C  -1.1810656032096447  3.957000853204486  0.7448733980174976 
C  -0.7303683397605008  3.785978183600269  2.190448630650133 
H  -0.3121519713030161  2.9039612049634016  2.2709037022772547 
C  0.31547617199292666  4.833513542715507  2.5688517340181454 
H  -0.06182583883780812  5.711482566285414  2.4756699424771536 
H  1.0772563295783095  4.750522264387565  1.9893631239224143 
H  0.5901883289011625  4.697455469023673  3.478022241365415 
C  -1.903904221403048  3.838410309092706  3.1737797990332957 
H  -2.28306572298776  4.720014440795689  3.171752317774356 
H  -1.5924454289920036  3.625632359165476  4.0557888379068325 
H  -2.5725788138013694  3.2028784886798225  2.9068494996597973 
C  -0.502340281273858  2.516157648453143  -2.7624412281153 
H  0.14626068469600895  1.8872107278550898  -2.3838927265819 
C  0.2165646267004533  3.3557864967243742  -3.826551025289056 
H  0.5900648671744233  2.775476367270454  -4.494364752326065 
H  0.9207458394938772  3.8622595634006465  -3.4133870841224603 
H  -0.40919238714443007  3.9558448705457683  -4.2384164251841625 
C  -1.6248163422116975  1.708239669989673  -3.3961827863998844 
H  -2.0512731806950306  1.1698449854144097  -2.7245431221960033 
H  -1.2625920982117693  1.1379955118575942  -4.079500645946171 
H  -2.268932099799563  2.3040492804234898  -3.7842445198157315 
C  -0.5656101357126182  -3.2022192413822825  -0.06657399078416225 
C  -0.7041992479819459  -4.106697258771052  1.0055240802992986 
C  -1.704096917367835  -5.069100382399333  0.9155758263574068 
H  -1.8156158632572048  -5.672360825671081  1.6152773357821737 
C  -2.535714371150563  -5.1572504169150735  -0.17973990528293016 
H  -3.1984424611251754  -5.809277975076087  -0.21401470881532525 
C  -2.3791630808461175  -4.269145711642603  -1.2259664706008395 
H  -2.932948721330372  -4.339950263797172  -1.9682622201425128 
C  -1.4108139069725414  -3.2739618327811746  -1.1925592152109192 
C  0.17071499259346523  -4.069144441615074  2.2493341210860742 
H  0.9202192613470206  -3.462123971010739  2.0749556551348816 
C  -0.6024231282419656  -3.5324672461572404  3.459112866967557 
H  -1.3688785060823194  -4.087399569449399  3.6196484715703 
H  -0.889804147504305  -2.6333409510957657  3.281915391543203 
H  -0.03371338673905355  -3.5396711053125083  4.23258904264006 
C  0.7458480127769864  -5.450598083122875  2.5678388391977762 
H  1.3923621523087146  -5.373651103708092  3.2733955624628077 
H  1.168630828268068  -5.810117499351947  1.7855332401639066 
H  0.03668509346045279  -6.0356947472805125  2.846026756724862 
C  -1.2464563932825519  -2.345596365208437  -2.3778080229774976 
H  -0.7752772022909884  -1.5434643564566004  -2.0672732092894353 
C  -2.5725142409618558  -1.900105664538692  -2.999245550187524 
H  -3.0117913393421354  -2.656123126500042  -3.3934064666266353 
H  -2.4028073021872256  -1.2396891989327739  -3.6758846097224653 
H  -3.133701037643635  -1.5221329672025918  -2.3185881405470243 
C  -0.3699048392964699  -3.0203170942410607  -3.4447307760474044 
H  0.49288366973777453  -3.2168067549887227  -3.0722900399594537 
H  -0.2675671744259809  -2.429636109011841  -4.195073388483546 
H  -0.7874211600394816  -3.83386360763864  -3.734742055917448 
N  0.3677761775292846  -2.117493048279267  -8.067354576309476e-15 
N  1.7673078467384347  0.01940795010148255  4.438515310103646e-15 
N  0.26491597573228076  2.0980850981777843  3.739861568668344e-15 
C  -1.8990916858964535  -0.02342677050697702  -1.9195179396467559 
C  -3.1033947812393836  -0.06644572646980727  -2.636100233577702 
H  -3.9125538201706864  -0.1175382764569928  -2.181468733292512 
C  -3.088237511595368  -0.031600390742887306  -4.010233483941372 
H  -3.889319204210985  -0.010118695683306554  -4.481781359064868 
C  -1.884472600709438  -0.02940012180173539  -4.695119735910537 
C  -0.6613672978749543  -0.03538171350843221  -4.046130661473356 
H  0.13577613661040933  -0.05614325936391046  -4.523210416934173 
C  -0.6668926932373191  -0.00940074749871774  -2.650812321662924 
N  0.429985642434172  2.8693587826831332e-15  -1.848701803915513 
H  1.2136399245843306  -0.019572766036950295  -2.20218346241762 
N  -1.9062519879387185  -0.08521860849383324  -6.147913298270745 
O  -1.7899856424341714  -3.252293857999083e-16  -0.631298196084487 
O  -0.8542299111961678  -0.05430059057969809  -6.757725831935402 
O  -2.998852627559895  -0.1485172555441866  -6.7121547391282945 
O  0.0  0.0  1.88 
H  -0.6511917182125614  0.10287963460190092  2.323400729493708 
