89

Ru  0.0  0.0  0.0 
O  0.21404168575881344  -1.9153335556834954  2.6367796834847468e-15 
O  0.2988233934809158  1.9336940100836975  -8.326672684688674e-17 
H  -0.3974078866492694  2.576459099350045  -0.06310708826041908 
N  1.8871349207602712  -0.018360454400201953  -2.6367796834847468e-15 
C  2.5503856599556123  1.1325785513587974  0.17443288674822524 
C  3.9295545872912996  1.12919351535317  0.3194519248189971 
H  4.410258131637744  1.9443715750033719  0.4044893490373841 
C  4.5912004786345  -0.08721408853526058  0.3363405503128264 
H  5.534620265721459  -0.11136860264550896  0.4436393610280146 
C  3.880285016852179  -1.2671823910482582  0.19716633839328077 
H  4.3276708818535745  -2.104283846569616  0.2239290169022811 
C  2.5087483852713364  -1.2115977442320964  0.017651087592131326 
C  1.5531235662097114  -2.403870085098958  -0.07349582896180049 
C  1.6230523939940038  2.351417306799265  0.23112046984459259 
C  1.8317339839172615  -3.3049455847521054  1.1469890701949468 
C  1.6922745239162869  -3.2013456976732515  -1.368444224967835 
C  2.712636279481001  -3.0475824580610844  -2.2854015816234554 
H  3.380021577302279  -2.387543445262871  -2.141313255113754 
C  2.771849771854712  -3.850864029360344  -3.4195089925559032 
H  3.47953914371352  -3.737981427432181  -4.042598770308688 
C  1.808458635298312  -4.810589744783251  -3.6403185918955927 
H  1.8476040030037402  -5.356870548231948  -4.415751434874695 
C  0.7845803125104984  -4.973766315115041  -2.725311353115499 
H  0.11918121027534534  -5.636136647421971  -2.8731118186907456 
C  0.7267270901285772  -4.1802767848882  -1.600909898971822 
H  0.0199578908800101  -4.301385847464998  -0.9767624693085176 
C  2.0774494809033603  3.3444566949767887  -0.851735139614167 
C  1.4527985353042303  3.3313631784350757  -2.0857012436813274 
H  0.7450141127117079  2.720321719841437  -2.2526414935168013 
C  1.8591404103577096  4.212584222960875  -3.0843042885709773 
H  1.4226093295069617  4.2004711246016  -3.928404293487111 
C  2.890992699657204  5.104534738288486  -2.8601912338994526 
H  3.1641476887012567  5.70245897609459  -3.546645367694518 
C  3.5203447095857063  5.119260814127497  -1.6353165952978785 
H  4.233283475204376  5.7251756547204105  -1.474348827010592 
C  3.1103462885032265  4.249522843562975  -0.6403161444094468 
H  3.544405028451709  4.272001074050323  0.20507287812899047 
C  1.68270488653427  3.0076336956546457  1.6257264791286978 
C  1.1188199718498724  4.265401111789199  1.7914952032643936 
H  0.7556326287134341  4.717922945788326  1.0391381314297736 
C  1.077035323611631  4.871092353018211  3.038223202256181 
H  0.6800326216871178  5.728489747723971  3.136551337682463 
C  1.6123811613692762  4.227220756361294  4.135432084381201 
H  1.595733280997834  4.643937996838667  4.988819569389075 
C  2.170737146990077  2.9785443356664953  3.9865066005906433 
H  2.540156567705818  2.531964574938963  4.739684022521617 
C  2.1972444744075585  2.37154998798639  2.7476808406560242 
H  2.574508739091983  1.503461986138972  2.6609036798319967 
C  1.185957380534549  -2.958315268277394  2.4129694816643066 
H  0.6036521137687002  -2.2092297796268885  2.465825862452128 
C  1.4308461396712264  -3.72879555882591  3.5274139116493886 
H  0.9983979135482044  -3.5174379379173275  4.346976714494245 
C  2.299128923619513  -4.80477861336227  3.4673352677764173 
H  2.4689482016789266  -5.321248543606009  4.245509434626877 
C  2.9222565037523998  -5.1308210640669  2.2685284488033797 
H  3.517804256551938  -5.868181406911498  2.2164767539653063 
C  2.6551302694011163  -4.351483468513003  1.1463372230857778 
H  3.0856028677155853  -4.579422595220139  0.33111499165659486 
O  0.5289071577941795  9.616966494794564e-16  -1.902949086532292 
O  -1.88890715779418  -1.1412681210154904e-16  -0.5770509134677082 
O  -3.6622411200014175  -0.02355727531148606  -4.214413388292373 
O  0.39537720778372787  0.009557724773426831  -6.571133295874106 
C  -0.20791897576536977  0.025494087963316626  -2.989562684083249 
C  0.4363664057252796  0.06717020243877651  -4.230792791146319 
C  -0.2689967055253186  0.012030106030953374  -5.435101531069374 
C  -1.668035179397259  -0.013899478908657115  -5.408902385072144 
C  -2.2879884616712047  -0.0029848071572947605  -4.158967787687748 
C  -1.6143311103572016  0.02595584095098368  -2.935291195647303 
C  -2.3539820149987163  0.02747286803635032  -1.7586309694597073 
C  -3.7693493984933575  0.013335132590301904  -1.8271744168197173 
C  -4.3971940664080185  -0.016335029083316847  -3.0621742526405304 
C  -5.850423077415812  -0.0795761182084269  -3.284248015637293 
C  -6.775438478807748  0.35662501987845624  -2.3326074930031235 
C  -8.151637907917063  0.29225964024872453  -2.5559810572946438 
C  -8.584345800799445  -0.21933088707280574  -3.771252735477014 
C  -7.686394010611277  -0.7146819136888168  -4.721098366581526 
C  -6.315535590631379  -0.5968391862242204  -4.490469673757051 
H  -4.248107721030936  0.029708203898102057  -1.0516031814473823 
H  -2.131938698972204  -0.020442741002764782  -6.193628197217482 
H  1.3448334509483963  0.15269788237264464  -4.278293356497988 
H  -0.14457194745302937  -0.16920131609895514  -7.144282888097191 
H  -6.468149201269987  0.6946951780578562  -1.5369662622597065 
H  -8.750853256393615  0.5971381469811524  -1.9232918663938456 
H  -9.489144203705504  -0.23760554890161487  -3.9483310707801267 
H  -7.983611613436719  -1.1339156395017487  -5.501446243948876 
H  -5.723923449551546  -0.8641970608962688  -5.138596591403432 
O  0.0  0.0  1.88 
H  -0.6511917182125614  0.10287963460190092  2.323400729493708 
