77

Ru  0.0  0.0  0.0 
N  0.2476835340346305  2.2423552531709876  -6.770651647613296e-16 
N  1.7665216570626625  0.022589741672828345  5.5067153142190195e-15 
N  0.3857948089027068  -2.2649449948438156  -4.815772361649876e-15 
C  1.517967441585851  2.425738760910538  -0.008278484495357513 
C  2.3875754063181036  1.200102446181222  -0.0660551380067089 
C  3.7667278912048276  1.2773343297413429  -0.1403584326344146 
H  4.1977169716437235  2.1011122227248418  -0.16963035730808948 
C  4.49050870186081  0.09815343495711878  -0.17243343071774125 
H  5.415224913038231  0.12162405572694365  -0.2677169484233323 
C  3.8455268736271133  -1.0924596165980107  -0.06204424322685089 
H  4.329664715855033  -1.8853233174291266  -0.029938922370624264 
C  2.456537873547889  -1.117415782238012  0.0002940071132699737 
C  1.6632545405643149  -2.374689351919973  0.055257036411620525 
C  2.1926634326222163  3.7531424336757526  0.0275519384560447 
H  1.5310940090297405  4.445770195686704  0.10807827613023946 
H  2.6923010544619492  3.880566842373023  -0.7819578619234737 
H  2.7862120636724512  3.79121680606888  0.781357340894407 
C  2.3969742794490108  -3.684262148643803  0.1649128381363661 
H  1.7655319068997781  -4.394604272510228  0.2966163202859801 
H  2.999948870463509  -3.651030288941526  0.9119957894152896 
H  2.8935000280455103  -3.842079770438537  -0.6404726094797046 
C  -0.631175835120781  3.3743691043324366  0.12210655193877411 
C  -1.052394216813145  3.7401784339933113  1.4112949552598435 
C  -1.9469827558019366  4.799119439421137  1.5059343917195052 
H  -2.2307577856937213  5.065877785367912  2.3510513169302474 
C  -2.4324731584797687  5.470137522337194  0.41161380738081327 
C  -1.9824114805610378  5.090679056341573  -0.8241845655964407 
H  -2.2911038867773916  5.549186556290261  -1.5736940123915828 
C  -1.079349396915185  4.041748298639115  -1.0025142283756774 
C  -0.4980161731327908  3.070378738941241  2.6246245243354904 
H  -0.953849501022721  3.3937111991206215  3.404567975733821 
H  0.439337853423444  3.2647811242707596  2.6971881617650415 
H  -0.6232845119991184  2.121792819495434  2.5503309397751455 
C  -3.40768026801062  6.618769285912859  0.5896891712735708 
H  -3.3076306413161616  7.23951295008858  -0.13392862534560973 
H  -3.2280795748591515  7.0652114774630235  1.4208721478938802 
H  -4.305278041823692  6.277522107285806  0.5975840762694569 
C  -0.5667664007252995  3.690587272786081  -2.377239199393097 
H  0.3765667002448134  3.8586009141080186  -2.419952510478223 
H  -1.0181524644881395  4.225593818298138  -3.033750172416355 
H  -0.7342986048949058  2.760583879258978  -2.5517527191964207 
C  -0.48972303479555346  -3.3990678764544593  0.06710771023599442 
C  -0.9821828048700116  -3.9429385044974676  -1.1013434204538237 
C  -1.9287470149682935  -4.954948947291955  -0.9970946802411979 
H  -2.27306369986266  -5.327727911162655  -1.7765378177431197 
C  -2.377578196300017  -5.425836265612735  0.2140309755472652 
C  -1.828276690824154  -4.878844823830238  1.3584544630284765 
H  -2.1035639452493617  -5.201649607981113  2.1861986136452827 
C  -0.8864514146117817  -3.8714812292703953  1.318008852105166 
C  -0.4838416682132449  -3.486038245720628  -2.44912289612679 
H  -0.7385701592655214  -2.5715364227788324  -2.591808535496564 
H  -0.8690446316242226  -4.035285348451361  -3.1356019104610207 
H  0.4721406436912219  -3.559530080283333  -2.4795141708351367 
C  -3.4245035065788842  -6.528272996221667  0.2909981094537823 
H  -4.148779352471055  -6.324354149241706  -0.30643348738684667 
H  -3.757219649623842  -6.590903139578429  1.1879995271228954 
H  -3.0265455638963115  -7.3649982294371155  0.037188633751221306 
C  -0.315608218512506  -3.305629479614632  2.5929710095352116 
H  -0.7134674228331932  -3.749542150577252  3.3465440279588687 
H  -0.5056524987709494  -2.3654638219044464  2.6389848944334107 
H  0.6333000290366217  -3.4421337035054513  2.6078412682151484 
O  -1.887463540800408  1.455432996344541e-14  -0.11253645919959032 
N  -0.11253645919958988  -1.1823875212257917e-14  -1.88746354080041 
H  0.5415965655981927  0.0680405052560059  -2.441171808314464 
C  -1.382716529618885  0.013079485354972446  -2.3667629522047102 
C  -1.7672545637221395  -0.016410292758535658  -3.7136075101678316 
H  -1.1247328033226776  -0.0587650125524104  -4.384231999076746 
C  -3.0864763406645235  0.017866207244689885  -4.031854701496439 
H  -3.342684336939814  -0.004028235486740098  -4.924937954067037 
C  -4.057754057205722  0.08482589264143964  -3.0419660320582653 
H  -4.956653490738667  0.12705434678122587  -3.281756202947639 
C  -3.7026382982075043  0.09163107389365277  -1.6962344848248367 
H  -4.359712160461002  0.13386055600009647  -1.0390178535803938 
C  -2.3592976977637874  0.034793634409703046  -1.337893199633672 
O  0.0  0.0  1.88 
H  -0.6511917182125614  0.10287963460190092  2.323400729493708 
