41

N 0.999245 -0.010556 0.000000
N 3.053874 0.938842 -0.271994
N -0.326106 2.240257 -0.000000
O -0.673139 -2.229701 -0.000000
O 3.644747 -5.422142 -0.266956
C 1.909433 -1.028081 -0.095130
C 1.683567 -2.401706 -0.065491
C 0.326757 -2.942840 0.010008
C 0.197040 -4.419237 0.123700
C -1.066736 -4.968964 0.305357
H -1.826775 -4.400712 0.358257
C -1.223105 -6.339299 0.409751
H -2.084822 -6.717633 0.543556
C -0.110107 -7.151168 0.317022
H -0.209193 -8.093843 0.381299
C 1.152743 -6.608780 0.130440
H 1.906276 -7.182808 0.065321
C 1.322065 -5.246894 0.039477
C 2.682289 -4.684411 -0.146280
C 2.823658 -3.199724 -0.182821
C 4.111812 -2.663788 -0.305697
H 4.861436 -3.246194 -0.353437
C 4.303821 -1.274070 -0.359102
H 5.173889 -0.908784 -0.465450
C 3.195915 -0.444491 -0.253691
C 1.744569 1.109697 -0.120881
C 1.011448 2.373599 -0.093654
C -1.069792 3.381250 0.023053
C -0.482418 4.635288 -0.091449
H -1.033017 5.409806 -0.084891
C 0.910272 4.780888 -0.215473
C 1.669079 3.605959 -0.223179
H 2.614057 3.642472 -0.313512
C -2.554256 3.249727 0.132836
H -2.911054 2.867760 -0.695698
H -2.951174 4.133557 0.282621
H -2.775725 2.661291 0.885228
C 1.580818 6.112574 -0.384515
H 2.180677 6.274131 0.372917
H 0.900937 6.817536 -0.419959
H 2.097193 6.115028 -1.217210
