122

Cr  0.0  0.0  0.0 
O  0.40413  2.24151  0.0 
N  0.27001  -2.22081  0.0 
N  1.72586  -0.0207  0.0 
N  2.40885  1.13108  0.45558 
H  3.37418  1.10402  0.04365 
C  -0.6653  -3.32285  0.02606 
H  -1.75524  -3.13229  0.01005 
C  -0.0144  -4.69206  0.14436 
H  -0.62967  -5.58421  0.19105 
C  1.31982  -4.81885  0.21237 
H  1.78435  -5.80734  0.29522 
C  2.20788  -3.65097  0.17388 
H  3.28383  -3.77375  0.24511 
C  1.66907  -2.43726  0.08805 
C  2.45978  -1.23631  0.11234 
H  3.54142  -1.2522  0.15156 
C  1.77456  2.26405  -0.19816 
C  2.40885  3.62522  0.07094 
H  3.49908  3.57414  -0.1389 
H  2.23821  3.98032  1.10494 
H  1.96757  4.35622  -0.64263 
N  -1.93376  0.0  -0.06624 
N  -0.06624  0.0  -1.93376 
N  -1.51651  -0.18181  -3.72435 
S  -2.53906  -1.39139  -4.50203 
O  -1.66024  -2.27828  -5.39327 
O  -3.02104  -2.34136  -3.3871 
C  -2.81444  0.38195  1.03012 
H  -2.58179  0.0841  2.06481 
C  -4.24415  0.62625  0.65546 
H  -4.97649  0.78967  1.44163 
C  -4.60773  0.67417  -0.63114 
H  -5.63907  0.89851  -0.88381 
C  -3.63917  0.34996  -1.70555 
H  -3.98372  0.38445  -2.72745 
C  -2.38713  -0.0445  -1.39273 
C  -1.33501  -0.51433  -2.3375 
C  -0.16758  -0.00054  -4.29044 
H  0.07395  -0.73379  -5.0842 
C  0.79476  -0.24023  -3.09374 
H  1.0463  -1.32677  -3.09149 
C  2.06462  0.59432  -3.14148 
C  2.02543  1.98279  -2.93363 
H  1.08599  2.47397  -2.71301 
C  3.19595  2.74485  -2.94748 
H  3.15376  3.80615  -2.73997 
C  4.41984  2.13589  -3.21104 
H  5.32387  2.73083  -3.21907 
C  4.47209  0.76448  -3.46799 
H  5.42115  0.29913  -3.69676 
C  3.30343  -0.00718  -3.42461 
H  3.36342  -1.06796  -3.62695 
C  -0.07741  1.37834  -4.94396 
C  -0.9313  2.44228  -4.57961 
H  -1.67179  2.32023  -3.80169 
C  -0.8235  3.68505  -5.21131 
H  -1.48124  4.49392  -4.92382 
C  0.12573  3.88342  -6.21534 
H  0.19991  4.84501  -6.70716 
C  0.9772  2.84183  -6.58739 
H  1.71089  2.99851  -7.36895 
C  0.87932  1.59709  -5.95545 
H  1.54972  0.80228  -6.26163 
C  -3.83839  -0.5338  -5.30619 
C  -5.16579  -0.77297  -4.9655 
H  -5.41463  -1.49839  -4.19748 
C  -6.17671  -0.06427  -5.61068 
H  -7.20072  -0.24241  -5.33234 
C  -5.84209  0.91093  -6.56919 
C  -4.49899  1.16537  -6.87799 
H  -4.2211  1.91374  -7.60881 
C  -3.49714  0.43921  -6.24343 
H  -2.45965  0.63542  -6.47629 
C  -6.93613  1.65047  -7.27583 
H  -7.51811  0.91955  -7.86754 
H  -6.50915  2.41703  -7.96134 
H  -7.58379  2.14798  -6.53177 
S  0.0  0.0  2.25 
Si  -0.06955  0.28389  4.37038 
O  -1.23637  1.25371  4.86897 
C  -1.65479  1.91751  5.87753 
O  -0.314  -1.16502  5.00682 
C  -0.92458  -2.27961  4.94239 
O  1.33192  0.84466  4.9084 
C  2.51278  0.56138  5.29281 
C  -3.16917  2.14947  5.75907 
C  -1.37245  1.12709  7.1775 
C  -0.92913  3.26994  5.92026 
C  -0.96884  -2.92072  6.33981 
C  -2.36655  -2.04692  4.45931 
C  -0.18485  -3.21832  3.97177 
C  2.46211  -0.34977  6.53518 
C  3.26677  1.85455  5.66426 
C  3.24211  -0.14814  4.14271 
H  -3.53822  2.70222  6.65171 
H  -3.71317  1.1822  5.696 
H  -3.40975  2.74752  4.85411 
H  -1.69713  1.68243  8.06427 
H  -0.27925  0.92603  7.26451 
H  -1.89276  0.1434  7.13696 
H  -1.23517  3.84633  6.81847 
H  -1.16529  3.86931  5.01399 
H  0.17211  3.12029  5.95852 
H  -1.52549  -3.88503  6.30398 
H  -1.47609  -2.25454  7.0703 
H  0.0591  -3.12682  6.70922 
H  -2.92863  -3.00485  4.39864 
H  -2.3543  -1.59847  3.44772 
H  -2.90582  -1.35644  5.14468 
H  -0.72218  -4.19222  3.89334 
H  0.84532  -3.42051  4.33971 
H  -0.11826  -2.77921  2.9631 
H  3.48737  -0.62924  6.8561 
H  1.90287  -1.28224  6.31934 
H  1.96527  0.1691  7.3838 
H  4.30579  1.61748  5.98463 
H  2.76101  2.38124  6.50412 
H  3.31836  2.54852  4.79824 
H  4.27114  -0.42833  4.44507 
H  3.29547  0.52428  3.25798 
H  2.6898  -1.06639  3.85251 
