109

Ru  0.0  0.0  0.0 
O  0.16228675142625315  1.9720485598974273  -8.540423404737198e-15 
O  0.15709917537959972  -1.9914790909528546  9.375470226972342e-15 
O  4.050481811284113  -5.6389864939606404  0.7902798399558482 
N  2.0806140731941474  0.019430531055427164  -8.905579734664015e-16 
N  4.256517539698935  0.6851338432882291  0.15018340299355729 
C  1.1747044604811991  2.8091581472195997  0.00033347449388256305 
C  0.8813373402368629  4.18627093538822  -0.016399469717873108 
H  -0.006647365619073753  4.456774664045161  -0.06360873733173321 
C  1.860155184366196  5.134506661002872  0.03503987983144655 
H  1.62968406728635  6.035607405356256  0.03437450944942239 
C  3.1921481733008417  4.7696114862174905  0.08787404346914193 
H  3.8580037212474814  5.416541029690933  0.11677707185586716 
C  3.51062842329753  3.445578184875336  0.096226725615747 
H  4.406324146998423  3.2000023404700246  0.14217076971888593 
C  2.5369715238172685  2.446690300255366  0.03793876756328699 
C  2.9717729041534158  1.0587165683083941  0.04681677876928234 
C  2.848679990906814  -1.0977732809091585  0.124762689054046 
C  4.198269047512599  -0.6766123224939896  0.2200714787679193 
C  5.1943146675337735  -1.6294060721704047  0.4224493516053267 
H  6.086195457929019  -1.3784655191602835  0.48851337039714954 
C  4.829697537820008  -2.9396524204701606  0.5178961194209487 
H  5.494878008689992  -3.574658853120492  0.6598090915760333 
C  3.5068661764986073  -3.376266438123097  0.41502897649607945 
C  2.4740060123295873  -2.433310642205942  0.20761880746141112 
C  1.0825411096911883  -2.8317296716941165  0.1317158979834967 
C  0.7516932061555923  -4.264302387598455  0.21904360476988363 
C  -0.5600978302445441  -4.6940743620354  0.10028188194294076 
H  -1.2376932530528986  -4.071808076784287  -0.0404114129539597 
C  -0.8719110377447075  -6.03794593162848  0.18888903779331803 
H  -1.7559216045085633  -6.316947433667109  0.11183671978772286 
C  0.1217999616257579  -6.960530622211672  0.3902122566024501 
H  -0.08917364712638065  -7.865046176074823  0.45033578968006566 
C  1.4341273605088982  -6.552973858611537  0.5059845442381131 
H  2.1014867296381787  -7.185695113108098  0.6402515787017715 
C  1.7694708263055259  -5.215583322397597  0.42299994570982324 
C  3.184155611516923  -4.805919535960698  0.5591348441509144 
O  -1.907623080496524  -1.7208456881689926e-15  -0.09237691950347426 
O  -0.7670263036821396  -0.2271680384209428  -4.664310114011111 
N  -0.0923769195034756  1.1102230246251565e-16  -1.907623080496524 
C  -1.3787674661427067  -0.08693183105278994  -2.346724023637235 
C  -2.3726825712264326  -0.09493821364127707  -1.3033547209815362 
C  -3.7402844180221217  -0.23895858646984997  -1.6569559382466128 
C  -4.003443448185623  -0.2393129765864992  -3.001630876382616 
C  -3.0821687167363763  -0.1875812143708438  -4.082022298030898 
C  -1.761483190988952  -0.17530363231354312  -3.708257849400437 
C  0.8900308522759753  -0.193782999578992  -2.909330811834125 
C  0.5447309795754206  -0.3291068331609487  -4.260565576032295 
C  1.5199591364664322  -0.58584412601902  -5.23559035236513 
C  2.8293860638378803  -0.6375757970844432  -4.798636114391151 
C  3.228955270507857  -0.5005375468184105  -3.4794681580470104 
C  2.2236075794507224  -0.30475804858399264  -2.5426618450040253 
C  -4.870615350217558  -0.4050124356677298  -0.6239055702157081 
C  -4.8759035672809885  0.710377688914749  0.37325871150730117 
C  -6.2545857223642525  -0.497108250190351  -1.2680928876689388 
C  -4.67590785568274  -1.7394121643478786  0.12226377093301699 
C  -3.5845290545162225  -0.06417425005924171  -5.522916888965696 
C  -5.116528378418929  -0.09009694298507864  -5.609779456008404 
C  -3.129406897586999  1.281095171460735  -6.0728815567357115 
C  -3.0893837150213193  -1.165975458391991  -6.42970152166136 
C  1.167292872534513  -0.9015779525144957  -6.7045373960296955 
C  0.4079346475535235  0.23996026669596382  -7.361591975372684 
C  0.3722163954229061  -2.2158127908764254  -6.713359820842845 
C  2.4179239997189237  -1.142280594256278  -7.562449304080861 
C  4.6885378693659625  -0.5668549508756605  -3.0269030035888322 
C  4.8551998901761335  -1.6264117918731213  -1.9497862821909224 
C  5.076586740954347  0.7935763233342875  -2.4647407214935964 
C  5.631009888076356  -0.8997620635264049  -4.1900341433553425 
H  -4.932496278355326  -0.27758454427739765  -3.2452205023115477 
H  3.513650045165167  -0.777998543952584  -5.4565255017657455 
H  2.4579007092931127  -0.24396559994734632  -1.6125332262112042 
H  -4.009511044860432  0.7762583384797996  0.782950006394904 
H  -5.535426723439798  0.5324870062909647  1.046871717265067 
H  -5.084084719113767  1.5345818750014235  -0.07037425351984661 
H  -6.437786102691957  0.31070073000270143  -1.7518183492349633 
H  -6.9173463755317455  -0.6189639334937412  -0.5851537109777329 
H  -6.275739225949913  -1.242441099974155  -1.8715697822715556 
H  -3.817387409295117  -1.7470172745566033  0.5520456986977476 
H  -4.7240952051259555  -2.466402043410702  -0.5058567151951301 
H  -5.364408235566853  -1.8410387318691965  0.7812359005965266 
H  -5.482622790221267  0.594118843332391  -5.045988662006722 
H  -5.436296469427517  -0.9486673075266842  -5.319057617985152 
H  -5.387496996835139  0.06301287613272522  -6.516019408296595 
H  -2.171403985489345  1.3353416303751917  -6.0326870035267355 
H  -3.5117846284365513  1.9894140903239759  -5.5489395082887985 
H  -3.416384503698784  1.3670519708488853  -6.984416247369747 
H  -2.1300253554351816  -1.1892349918282852  -6.410121378747914 
H  -3.388536765323064  -0.9970587810669121  -7.325875639016136 
H  -3.437356195125143  -2.00875962887573  -6.128818064036248 
H  -0.38841974274189506  0.42548809994898873  -6.859311557532541 
H  0.16886537510838656  -0.00854449049905559  -8.258147723011366 
H  0.9639001955374609  1.0228015657416711  -7.3837012486162665 
H  -0.4252388120272313  -2.1122889697867544  -6.189327617082763 
H  0.9105930692282966  -2.9170047517974367  -6.341327831570401 
H  0.13254337784208636  -2.438846551535036  -7.614986448804875 
H  2.9318070014310873  -1.8589924935224746  -7.184252775802827 
H  2.95179098904946  -0.3420448204269485  -7.581129881881008 
H  2.15675718560343  -1.3732931744990413  -8.455555066560496 
H  4.269112780194723  -1.429224957888279  -1.213258861101453 
H  5.76340337598267  -1.6319456806067727  -1.6427344877908077 
H  4.633646628739007  -2.4871374783629143  -2.3109896943609285 
H  5.990347406710934  0.7719428727103993  -2.1747248261876035 
H  4.509392997590877  1.005027776891123  -1.721303790558589 
H  4.973025915344223  1.4610057856497844  -3.147886824631277 
H  5.535761245921135  -0.23702238684240162  -4.878828566326648 
H  5.408277117300163  -1.7619023391679778  -4.545628839518036 
H  6.538032847560737  -0.9068082435804624  -3.8773949226635387 
O  0.0  0.0  1.88 
H  -0.6511917182125614  0.10287963460190092  2.323400729493708 
