55
unq_CSD-PEBQOD-04-a-0 rssd=0.485 change:1.287->4_trigonal_pyramidal
S       1.722808595415051      1.187530488844415     -0.847328656206648
S      -1.620386926906166      1.097417489991355      1.179614881973209
N       1.369894531458111     -1.172898849725841      0.959051949058528
N      -1.437183405554048     -1.258657721059250     -0.668892853914588
C       2.019580165974853      0.585276078615576     -2.564110628463865
H       2.862860709850905      0.961281201526021     -2.920756365667062
H       2.086632265981471     -0.403473152230212     -2.575391780291777
C       0.892805544941280      1.022669518033517     -3.370372392749383
C      -0.069134889641068      1.448276893249361     -3.939783318599424
C      -1.244471151930199      1.967515212064696     -4.580923785909075
C      -2.286728319218120      2.507425525240776     -3.792589275080665
C      -2.195906121772226      2.516356350379509     -2.357388080539134
C      -2.161327589857262      2.518029907194376     -1.164921622168840
C      -2.142977543055959      2.616443098032231      0.292283517697028
H      -3.051689195097051      2.861410492459677      0.599639775339812
H      -1.533140086586004      3.353540151558577      0.548195983921384
C      -1.378469399128680      1.936439595170562     -5.968100539528592
H      -0.682461813795152      1.568934389202623     -6.500378638593972
C      -2.516138659569474      2.437306991745120     -6.578809999825978
H      -2.593461381833087      2.421413641545377     -7.525830595188705
C      -3.542391877058042      2.959855045422658     -5.811032860812201
H      -4.325748267736695      3.294658510942888     -6.230712529915385
C      -3.429890243925378      2.998110954717751     -4.428168761217998
H      -4.137795605619611      3.361159363902694     -3.910111417410541
C       3.015700465193841      0.301752478298262      0.005702286428381
C       4.326078570542433      0.701428412252510     -0.121686170037791
H       4.539761272481267      1.461066170505796     -0.652262780083919
C       5.354122975179352     -0.010934789321474      0.533474223406429
H       6.258105992090369      0.259411285909765      0.422299024987346
C       5.062558517968735     -1.083530686427847      1.324584853345157
H       5.763058636175726     -1.552728745937865      1.762236478892264
C       3.718786829099769     -1.502545421058122      1.498953830967237
C       3.358129155787396     -2.598810177163545      2.324505172315566
H       4.023839235810119     -3.079590191648367      2.803413573816431
C       2.047777134666507     -2.954669823008835      2.422325534220777
H       1.788571018090333     -3.692333641819062      2.961655126907671
C       1.085960402819702     -2.219494339606182      1.715141058328379
H       0.178065603929725     -2.488066503285722      1.784005251092244
C       2.687521247073310     -0.805943151536650      0.826861011912337
C      -2.932196259221755     -0.033568451151765      0.779519997494114
C      -4.158004492283220      0.102265301198760      1.385323882824263
H      -4.314463945153646      0.825433379307923      1.982595705708439
C      -5.179839455237272     -0.827251631985626      1.123213468288356
H      -6.028857138523597     -0.718563424067420      1.536378673656200
C      -4.973639332968618     -1.873060021306034      0.292686730366304
H      -5.680348739531247     -2.483616821930028      0.122541622039059
C      -3.713362659758518     -2.070897292049304     -0.328946884609057
C      -3.434620338114696     -3.160229182666542     -1.168185921003866
H      -4.104151526035865     -3.809093558186375     -1.344764517051422
C      -2.200049965216704     -3.283925947945782     -1.727672439717198
H      -1.997852501781050     -4.017195030539779     -2.295883393757989
C      -1.227858432360608     -2.303765946333478     -1.446854821533649
H      -0.368526557046557     -2.400448408587072     -1.842282791664516
C      -2.685796112127171     -1.121649319748973     -0.092035577844896
Cu      0.000000000000000      0.000000000000000      0.000000000000000
49
unq_CSD-PEBQUJ-04-a-0 rssd=0.466 change:1.535->4_trigonal_pyramidal
S       0.877205526398089      1.296075187128882     -1.662300509464364
S      -1.047268386313649      1.260459290706618      1.663135563776861
N      -0.927033784095119     -1.106263331186018     -1.440288136179529
N       0.765481636533307     -1.128094262603104      1.482278333786287
C      -0.417743107887050      2.557612087508929     -1.942388966103620
H      -0.358046055539417      3.235748846435511     -1.223026694272831
H      -0.232132490199686      3.014966560950818     -2.799934949841173
C      -1.778601997329189      2.038591920978707     -1.978786902326010
C      -2.901896913986294      1.625190043748215     -2.044535576188025
C      -4.243649854732476      1.098926782557507     -2.153535373985492
C      -4.831344101949576      0.403838352341427     -1.084308449536021
C      -4.102027685335452      0.261304106996516      0.134627940666967
C      -3.423436397288136      0.212550454641544      1.116514163794847
C      -2.468614793490695      0.249620292560060      2.215453371412075
H      -2.170136809956986     -0.666288469665024      2.441437093447455
H      -2.884105721626421      0.652992662154439      3.017933171833697
C      -4.964686904899393      1.265616466324408     -3.331047412825130
H      -4.582275055942230      1.751808189279497     -4.052629068846905
C      -6.243746511863068      0.726159382709362     -3.459639274043023
H      -6.729070271526782      0.846784961612447     -4.266231034489515
C      -6.797890421132620      0.024890371608610     -2.425135184206145
H      -7.664972501500300     -0.352009385253917     -2.523386592248085
C      -6.108165741299590     -0.141677223153113     -1.240002085181179
H      -6.504356467567384     -0.629263489760178     -0.527720847862954
C       0.496360604162895      0.136968833072829     -2.997338267430241
H       0.302576609013287      0.653312223751743     -3.819968704580520
H       1.298364052328098     -0.417055585221697     -3.173462152989625
C      -0.673671249512423     -0.780580352963431     -2.715840429802137
C      -1.430524028460809     -1.290775965834052     -3.760866323072575
H      -1.240468033137709     -1.038615401307268     -4.656306348054304
C      -2.460029184258947     -2.165537413534414     -3.490967909216145
H      -2.983511488178519     -2.522223429593323     -4.197269157573445
C      -2.718389066832808     -2.515642670364198     -2.191101035179971
H      -3.423210501350680     -3.116007986470361     -1.978838149444103
C      -1.923551840981607     -1.968904437240155     -1.195275433560106
H      -2.093843426411446     -2.218322821911929     -0.294500752899335
C       0.172412367325355      0.767375917408235      2.911415366617264
H       0.939326483249146      1.392388773425973      2.873624248489024
H      -0.237369658702205      0.850011745472620      3.808306921413529
C       0.685776653301266     -0.646436394187812      2.738334930218796
C       1.103492606287019     -1.394298546378871      3.830726560515074
H       1.061449143711430     -1.030760329374276      4.707582975232887
C       1.581815701053847     -2.675055766604305      3.627583729351618
H       1.873490480132491     -3.200753503876017      4.362957873768476
C       1.631154611952975     -3.181458927021015      2.344416393813787
H       1.930509611914409     -4.068849768184394      2.186340655582265
C       1.235438255904995     -2.372828218362272      1.293788028229566
H       1.298127951891075     -2.709535258224860      0.408067586259219
Cu      0.000000000000000      0.000000000000000      0.000000000000000
67
unq_CSD-PEDYUU-04-a-0 rssd=0.424 change:1.116->4_trigonal_pyramidal
C      -0.540111615362764     -1.433024559685863     -2.456503351165507
C      -1.159326225419704     -2.478596044222318     -3.158804025674841
H      -1.784981603726512     -3.004449747461241     -2.715365652971625
C      -0.881547559779943     -2.753307471726655     -4.467210562082362
H      -1.299282868628618     -3.470776014256300     -4.886827366108951
C       0.011544539707140     -1.978828179915635     -5.169168038279927
H       0.157002508276590     -2.127085929471948     -6.076310160042634
C       0.678218684456895     -0.990362880800195     -4.512047183971673
H       1.298588494390275     -0.480443687168256     -4.981980163117611
C       0.466537853301800     -0.709546703064122     -3.151320973434376
C       1.350843244157447      0.236047657626015     -2.546440844206568
H       2.012357586066388      0.580914558855168     -3.101161076292421
C       0.780801859687506     -1.474183529702044      2.362880163415775
C       1.576179922725756     -2.436257030107714      3.024421761997982
H       2.328069199351961     -2.775768880165133      2.595160909642317
C       1.272626915503610     -2.876899818094497      4.272061615962910
H       1.819358660094573     -3.510159420427095      4.679071745456125
C       0.159534347398712     -2.400044389848847      4.951833912678731
H      -0.051593841567190     -2.719178227733485      5.799117065668923
C      -0.611363107005609     -1.458853308427123      4.357962206798459
H      -1.350241524837785     -1.127554169109647      4.815607543221021
C      -0.329623653604320     -0.965758337983596      3.061890881399875
C      -1.172210385863381      0.102938939241956      2.615325378621515
H      -1.861678466069665      0.344195918144067      3.190683577057661
C       2.395962541818024      1.576269834297909     -0.956512439902047
C       3.718638181832027      1.175481954047055     -0.886035235377646
H       3.953328650580104      0.308263456911367     -1.126309083527059
C       4.685718677367905      2.051833752863690     -0.462530406757089
H       5.571312726646258      1.775427501982355     -0.406793396104406
C       4.348739964405326      3.338375910094097     -0.121658928514898
H       5.005091474827376      3.930596878077743      0.164689862031191
C       3.027867266530146      3.755084558859453     -0.204690356613523
H       2.796807808427870      4.628356350477676      0.014851791470582
C       2.070481793058126      2.869820905152674     -0.611407529364415
C       0.139869195758370      3.239351232301661     -1.893769271021057
C       0.687449128385487      3.885441618494221     -2.960281230754108
H       1.493850085869776      4.340165331589300     -2.867115354396683
C       0.020617028695164      3.861269106210195     -4.216440528165258
C       0.550617182039149      4.532583262067019     -5.345695796739017
H       1.363588371852545      4.980912820869511     -5.277795051254481
C      -0.120150783433335      4.525889072255305     -6.523819030666040
H       0.239219730391353      4.964708017214949     -7.260567174428809
C      -1.339654352725193      3.867010118251565     -6.640364165508130
H      -1.786709283554656      3.871887135868750     -7.455398105611378
C      -1.887267252169390      3.219281566175835     -5.581774662826284
H      -2.707757654358252      2.788502497611618     -5.672426270660385
C      -1.203928465112880      3.198701972068840     -4.335895357913273
C      -1.733430781775706      2.526309264885232     -3.202396401594830
H      -2.536016098218336      2.061474779913952     -3.270012460428275
C      -1.065857892515403      2.563641564584040     -2.019554300161231
C      -2.057842451287257      2.524800141871320      0.130006266335992
C      -2.777452893634642      3.685285705715881     -0.048465460760973
H      -2.870487722853820      4.048802997992971     -0.899878667592821
C      -3.357360172999908      4.305774683555478      1.029872202366281
H      -3.840186321133228      5.092485673013186      0.914650894678789
C      -3.218115579682781      3.759833429651905      2.273847628376837
H      -3.617531245051947      4.172578525504291      3.004994858493666
C      -2.498740965761445      2.611883941926649      2.456310743764169
H      -2.405815134043613      2.264878283915678      3.314381581811892
C      -1.902651670356281      1.953838802737782      1.389684062730321
N       1.353587785366377      0.673573061508223     -1.335214292957272
N      -1.096092782887038      0.781678020482405      1.504878644142996
O      -0.893406768398747     -1.198496787773419     -1.226581679251777
O       1.129118195569266     -1.082945398027728      1.170225437821693
O       0.732751679253050      3.263724699066323     -0.632734126830756
O      -1.522281699919523      1.814540809406416     -0.932930783653770
Cu      0.000000000000000      0.000000000000000      0.000000000000000
81
unq_CSD-PETGIE-04-a-0 rssd=0.474 change:1.268->4_trigonal_pyramidal
P       1.116186018614036      1.120871092428903     -1.607302580725789
P      -1.127036907600725      1.115791865402424      1.596946361656387
N      -0.800024641942934     -1.595799074462871     -1.260466713653132
N       0.784852334597914     -1.591439547333632      1.253866803156830
C       1.466334668150699      0.031221706906170     -3.039363996956805
C       0.239807396230263     -0.771603211939626     -3.462021755569672
C      -0.096703356344366     -1.926889711873226     -2.540014344280136
C      -0.678335830168625     -2.752900529498922     -0.379581014006231
C       0.654167784137808     -2.746387870544898      0.342935977581954
C       0.073500339972796     -1.918959951745588      2.514961702217442
C      -0.254158031412920     -0.766621387688031      3.453457272503539
C      -1.479116221558810      0.041883628648100      3.033704332128109
C       2.728860440083414      1.935352785443653     -1.247411441515287
C       2.814351400562864      3.306844091324747     -1.119210413559689
C       3.995582487130124      3.906839966685160     -0.725121426555962
C       5.089532939649011      3.123809389146577     -0.474585257364137
C       5.025231244843646      1.753683609174686     -0.589026548433286
C       3.841377881265746      1.148601594309240     -0.981888812886957
C       0.095978570552498      2.410081490015881     -2.398249648280497
C      -1.215678298377116      2.609478663762413     -1.958472789758297
C      -2.019696228879805      3.527875713510223     -2.557786969838071
C      -1.593735736548962      4.266198076054336     -3.617254783384356
C      -0.316828869655539      4.073073451451779     -4.103220628534552
C       0.521446929023015      3.166306550790174     -3.501830852088046
C      -2.233081814957626     -1.358999178859678     -1.561028218695703
C       2.215498712578731     -1.365805901211127      1.561128871931734
C      -0.092141589544218      2.388040120882641      2.400000249693963
C      -0.533701985807040      3.153204904610941      3.463534264285994
C       0.317489711974786      4.026287507063572      4.139530915847105
C       1.622040522025924      4.128596858889277      3.711050355583370
C       2.082478131144692      3.382112636140570      2.671036916585464
C       1.221167642673474      2.520685125623937      2.026673458144044
C      -2.715174707220472      1.930393076468872      1.257748357021891
C      -3.821160389346931      1.128413863979547      0.998921303439243
C      -5.015002562125863      1.697043651670865      0.594612719502907
C      -5.106006615833078      3.046111723728905      0.424648108002572
C      -4.032828845930958      3.848809548754818      0.657685735622196
C      -2.845770981736519      3.286392313852805      1.065334580756473
H       2.168015283827469     -0.577162389025978     -2.800952660396874
H       1.750892100996462      0.574865336383034     -3.779371788497846
H       0.398737890726755     -1.124523963572405     -4.340838562979529
H      -0.514658165862531     -0.178769600794724     -3.487653671473518
H       0.726970373172694     -2.364274296467633     -2.312088583422278
H      -0.657486967354104     -2.533908570074197     -3.029458812438954
H      -1.386180746972696     -2.731066669741332      0.268409523210729
H      -0.748239444871537     -3.555115809937902     -0.902205686674557
H       1.358966950196260     -2.708123643584335     -0.308151877057050
H       0.733669528357546     -3.555785825777221      0.854465402670827
H      -0.753935829741121     -2.342340496444365      2.277573582422603
H       0.621583688511746     -2.539227736618949      3.002421462713244
H      -0.415601844342156     -1.126901431550270      4.328671506426579
H       0.502339074159002     -0.176554504671667      3.483625017342311
H      -2.187163196685984     -0.563401846856581      2.802305900507819
H      -1.755900851005521      0.592183940722222      3.771220884778401
H       2.044992800185423      3.850010566403856     -1.303808719010741
H       4.047673710817596      4.860350266776636     -0.629000242448590
H       5.915428192244681      3.537398549785150     -0.216304929150362
H       5.799167969668131      1.218706488186505     -0.397957906351057
H       3.791665470475829      0.193598491836782     -1.066968131651473
H      -1.553003727680808      2.091588601431642     -1.222284988932916
H      -2.909988091628659      3.657834003437142     -2.225402024326929
H      -2.174420606585586      4.914881702659031     -4.022710088301595
H      -0.013598813955402      4.572937151658962     -4.864599216712124
H       1.411547587470604      3.048356333236451     -3.841223624565892
H      -2.242094795519337     -0.596409862452702     -2.144345842879420
H      -2.705466491334834     -1.147884100261582     -0.751809162375030
H      -2.659951648323309     -2.100944616938234     -1.996928703068882
H       2.737410669909338     -1.195103505937373      0.774817349033119
H       2.534354385316774     -2.164153325150803      1.989287242925052
H       2.297345799488218     -0.625863731024194      2.166673163576434
H      -1.450046039565358      3.081343290536832      3.743282818463557
H       0.003207230026807      4.542989351227874      4.884949620856464
H       2.217109636655279      4.737518480271775      4.154538064350080
H       2.997683289233127      3.455556389685932      2.388867670079944
H       1.550578805902678      1.995582893063975      1.293854216515847
H      -3.754872092358298      0.176237524734542      1.101825242451932
H      -5.779759096390660      1.141348443862987      0.433886214785566
H      -5.935693511443860      3.434520662586022      0.137723550901529
H      -4.102896547604304      4.797957768171149      0.539283519591324
H      -2.088007917975558      3.855045628581349      1.217801616039002
Cu      0.000000000000000      0.000000000000000      0.000000000000000
