64
unq_CSD-PEXNIP-06-a-0 rssd=0.648 change:1.106->6_pentagonal_pyramidal
O       0.020313610240035      1.664559602461996     -1.292573393309091
O      -1.360551695903598     -0.703336958876259     -1.486887240194272
O       1.364701004613503     -0.811035943595278     -1.489859951875817
N      -0.034151486472700      1.772773084693148      1.342436917012954
N      -1.922828217226994     -0.431050654580382      1.150042990597083
N       1.856412012212427     -0.334914993451452      1.065099698654928
C      -1.055915069027415      1.532610717592209      2.396343515717712
C      -2.260554165904976      0.864522996421077      1.788782865992621
C      -1.907555244402704     -1.471301184101064      2.215863243797898
C      -1.428317914220017     -2.839085886113201      1.764838000268295
C      -0.021739674663583     -2.882972096364699      1.219223744079835
C       1.058899030386974     -2.413599822816174      2.184329752749630
C       2.201790335552877     -1.731492783942821      1.507106405473708
C       1.908602597959606      0.572492273442453      2.253026331384197
C       1.333006080043519      1.912916687417404      1.958381767574196
C       2.913809338005365      0.106549389188930      0.073285328792356
C       2.765025378516359     -0.650349633817845     -1.233256137204863
C       3.412438695907388      0.120456643174537     -2.366700021926946
C      -0.379189151504997      2.989315483402304      0.567366925430238
C       0.277703277363622      2.994445693331507     -0.803251255479809
C      -0.270823733677909      4.020065206643794     -1.726727439293400
C      -2.960316785145486     -0.757886583912135      0.161234107780852
C      -2.675325296181259     -0.173713776515358     -1.185705576212504
C      -3.676881305071293     -0.624183052574820     -2.203111430521751
H       0.238809174096744      1.393761372808514     -2.125809312716961
H      -1.313648612671773      2.393018832652039      2.834311900443949
H      -0.663443346320191      0.920284971940348      3.084386463568439
H      -2.952696011624099      0.713630805138195      2.493937566760033
H      -2.634102606592079      1.478200321663124      1.092011079147027
H      -1.054358346698799     -0.443812182156982     -2.298531092614505
H      -2.845611265411282     -1.560878786027322      2.548499704040452
H      -1.322145102750618     -1.163861843638371      2.966559865601105
H      -2.056901660728237     -3.178014448306816      1.065745436043028
H      -1.458923616116045     -3.452130744605939      2.554873279535665
H      -0.004170805399410     -2.297845398898210      0.408353703478545
H       0.179052324681253     -3.824646096577562      0.947270769611440
H       1.413896715289605     -3.211737521163377      2.673737873024314
H       0.664367434833462     -1.776053582245986      2.845204794830067
H       2.977599231285954     -1.691487940817775      2.136180931923451
H       2.459710194645286     -2.269618593864336      0.706230179717153
H       1.261253193861961     -1.633405658496435     -2.084994106889711
H       2.861768722960070      0.701164251194161      2.526263335271054
H       1.408612304012011      0.144081417257421      3.006528749602615
H       1.247737651145174      2.429512016513255      2.809393131181967
H       1.934063473872615      2.412676303386110      1.334194916086449
H       3.815770328385951     -0.092095110398825      0.459816497801014
H       2.839714390860629      1.091409547428020     -0.088995438770818
H       3.214757433104876     -1.541742489018474     -1.174474194630119
H       3.283334239870340     -0.379349276074141     -3.222527184685504
H       2.966463646235367      1.012610237532567     -2.440866248365161
H       4.389807626813811      0.244015429622239     -2.191630066793564
H      -1.371316716869173      3.035033089910554      0.453149131283665
H      -0.071302068320372      3.793437823737967      1.075282061827218
H       1.257047822662674      3.181876700276868     -0.728912508998315
H      -0.109848075689968      4.942534954189640     -1.376508004655554
H       0.183975412205008      3.919541633092055     -2.611082519600262
H      -1.253239497180449      3.877711907543044     -1.847003728963690
H      -3.847527398401260     -0.428509254525601      0.486787486833362
H      -2.998832640307816     -1.752503944733184      0.065066574514761
H      -2.646510275240132      0.824787483173884     -1.134798612374940
H      -4.575751451668759     -0.242542995007512     -1.990571867108554
H      -3.726483908752613     -1.623330083144169     -2.201926942241045
H      -3.385056268398356     -0.312321904740191     -3.107154611150922
Cu      0.000000000000000      0.000000000000000      0.000000000000000
