47

Ru  0.0  0.0  0.0 
N  1.8084589729957508  0.019759183685371662  4.868683718437469e-15 
C  2.464383567120308  1.1910044713619243  -0.04976316828739618 
C  3.8364501269636353  1.2594979982270442  -0.10754562355952552 
H  4.278595363598245  2.0791638815140243  -0.10698038316697205 
C  4.532916408771244  0.07854040827299046  -0.1654729835459514 
H  5.459414228581373  0.09790828757929534  -0.25134384669669907 
C  3.884628048913336  -1.1319692696632484  -0.09897973505073364 
H  4.352000185949733  -1.9366100673661375  -0.10424112213870629 
C  2.514362168324668  -1.0989424665343401  -0.02545656339956214 
N  1.5920820432500775  2.294840671552841  -0.024995556336515252 
N  0.24811946704968868  2.0792861867091244  -1.0482568731665717e-14 
C  -0.31136599282339694  3.269112782990642  0.1027758287329214 
C  0.7010758817002142  4.249397392674873  0.12318721593094353 
H  0.578608172889886  5.169341259863244  0.1838191507611381 
C  1.8506603603610094  3.6163689105966905  0.03927346675967923 
H  2.693119546082085  4.011856475669589  0.02609256136986631 
C  -1.7951463176802547  3.4352140724994036  0.15776600232060198 
H  -2.205228553747842  2.8765894747476772  -0.5057717723754046 
H  -2.021480208243198  4.352840180943473  -0.014254796085965185 
H  -2.1143181718017985  3.186497836965793  1.0277283415736327 
N  1.6973529778363408  -2.25060597624196  0.05166070487115308 
N  0.34342155995456086  -2.0990453703944953  5.6138850132282495e-15 
C  -0.1708170461896641  -3.3268278752788505  0.05684581471615587 
C  0.8812595202690243  -4.2584171563407285  0.18960081356408173 
H  0.7985011206020114  -5.181457275580857  0.27624863845150105 
C  2.0214474500698705  -3.555811310946804  0.16668508196437848 
H  2.881791358996331  -3.90334058788813  0.2199554305813798 
C  -1.6138613402448339  -3.5852590927685433  0.017575836086000534 
H  -1.883723053595381  -3.7607260431666676  -0.8866341478145814 
H  -2.085246550058093  -2.818501476922177  0.3493756891765428 
H  -1.8157301343595684  -4.346988597733333  0.5637562927381521 
N  -1.7600427096341296  0.0988727361346544  -3.0082364632354746 
N  0.2815548848037748  -1.5393794683687176e-15  -1.7673042916665866 
O  -1.6415548848037749  3.573228388537607e-16  -0.712695708333414 
O  2.307059796949545  -0.010978858757486654  -2.7648827124104542 
C  -1.0584313575660342  0.03419733111857793  -1.8650003141240028 
C  1.058235907580736  0.042143613114924205  -2.8599682861002846 
C  0.36938055776132095  0.19421093152266067  -4.119169722605775 
C  -0.9638699054379534  0.1894529953729535  -4.098922638308181 
H  -1.3924551298914574  0.2569013184052839  -4.921126663535683 
C  1.194214453794688  0.3706005045024517  -5.365072853871856 
H  0.6342753656906668  0.26458729264277164  -6.137491857084797 
H  1.8918785970801135  -0.2890235058433937  -5.3829118042087645 
H  1.5838560233984187  1.2480612910364361  -5.370202701035392 
O  0.0  0.0  1.88 
H  -0.6511917182125614  0.10287963460190092  2.323400729493708 
