95

Cr  0.0  0.0  0.0 
N  -0.31524  -3.48285  -0.00658 
C  0.28364  -2.15991  0.0 
N  1.66509  -2.38334  0.04188 
C  1.95327  -3.75524  0.02796 
H  2.94123  -4.19473  0.03073 
C  0.74628  -4.4259  0.00046 
H  0.62628  -5.50032  -0.02696 
C  1.75776  -0.02034  0.0 
C  2.46031  -1.24163  0.0977 
C  3.85521  -1.27664  0.20344 
H  4.38438  -2.22105  0.20642 
C  4.56867  -0.07583  0.29231 
H  5.65042  -0.10212  0.33203 
C  -1.72419  -3.81916  -0.00259 
H  -2.25319  -3.1124  0.67258 
H  -1.87202  -4.85659  0.36007 
C  -2.27959  -3.73365  -1.4141 
H  -1.76358  -4.43697  -2.10521 
H  -2.06862  -2.74844  -1.71559 
C  -3.79407  -3.8642  -1.498 
H  -4.09494  -4.89424  -1.22321 
H  -4.25361  -3.13929  -0.79236 
C  -4.29165  -3.52208  -2.90679 
H  -5.39847  -3.58676  -2.9324 
H  -3.86429  -4.21542  -3.66058 
H  -4.00337  -2.4866  -3.18875 
N  -0.18031  3.54133  -0.06977 
C  0.3586  2.18025  0.0 
N  1.75811  2.31999  -0.33263 
C  2.06914  3.66538  0.02288 
H  3.06499  4.08423  0.10227 
C  0.91821  4.40956  0.03708 
H  0.85507  5.48667  0.12384 
C  2.49506  1.18361  0.08981 
C  3.89764  1.15661  0.25558 
H  4.47705  2.06988  0.24699 
C  -1.53603  4.03381  -0.1924 
H  -1.65603  4.96904  0.39735 
H  -2.2877  3.36721  0.17952 
C  -1.91459  4.1912  -1.63941 
H  -1.27194  4.97039  -2.09945 
H  -1.76019  3.22084  -2.16682 
C  -3.39474  4.56778  -1.70452 
H  -3.57461  5.48502  -1.10212 
H  -4.01802  3.74347  -1.28163 
C  -3.80229  4.81404  -3.13535 
H  -4.87078  5.10598  -3.15862 
H  -3.65084  3.88883  -3.73068 
H  -3.18004  5.63546  -3.54778 
N  0.57694  0.0  -1.92929 
N  -1.93694  0.0  -0.55071 
C  -3.7786  0.41587  -2.20987 
H  -4.58434  -0.31954  -2.40915 
H  -3.6269  1.01521  -3.1337 
H  -4.16124  1.08889  -1.41651 
C  -1.55883  -0.6475  -2.93513 
H  -2.13622  -0.67627  -3.8876 
H  -0.99671  -1.59697  -2.9114 
C  1.94985  2.22305  -1.82841 
H  1.19822  2.85843  -2.34987 
C  1.75968  0.77727  -2.4194 
C  3.33445  2.74987  -2.24995 
H  3.53634  3.81112  -2.1484 
C  4.35666  1.95135  -2.59804 
H  5.33648  2.38992  -2.74974 
C  2.99755  -0.07974  -2.60256 
H  2.91077  -1.16343  -2.63399 
C  -0.46714  0.38456  -2.9374 
C  -2.55089  -0.4268  -1.79106 
C  4.20441  0.48585  -2.6866 
H  5.08803  -0.13832  -2.78748 
C  0.0143  0.5086  -4.44069 
H  0.99088  1.00406  -4.62783 
H  -0.70767  1.17063  -4.95592 
H  0.0604  -0.47105  -4.9673 
C  -3.95417  -0.18176  1.02569 
H  -4.36755  -1.02421  0.49856 
C  -2.73873  0.39484  0.60894 
C  -2.28245  1.43498  1.41672 
H  -1.40341  1.9003  1.25678 
C  -2.91966  1.98251  2.49055 
H  -2.46108  2.83702  2.99072 
C  -4.09896  1.4251  2.89647 
H  -4.57442  1.85803  3.76362 
C  -4.61018  0.32338  2.18822 
H  -5.51647  -0.12381  2.55371 
S  0.0  0.0  2.25 
C  0.0662  0.00099  4.03295 
N  0.21913  1.20908  4.73648 
H  0.21113  1.2026  5.77362 
H  0.32672  2.10092  4.24559 
N  -0.06884  -1.12571  4.62391 
H  -0.05984  -1.15971  5.66941 
H  -0.19919  -1.99477  4.10748 
