97

Ru  0.0  0.0  0.0 
C  2.2958673991922427  3.6784333390877872  0.2322845226803973 
H  2.6575820037309352  3.954762123020604  -0.6134099895600608 
H  3.002419674790959  3.6252743839308152  0.8805900273098848 
H  1.640647392624817  4.317080366509079  0.5248132517989762 
C  1.6532532007607106  2.336145439946986  0.08404037340504077 
C  2.4873533241093977  1.1428935887782021  0.03304759046494498 
C  3.874213207042308  1.1353965109576403  0.028332833263806638 
H  4.351581340854784  1.9330047868830842  0.05289037784046789 
C  4.537474930837093  -0.08624359055061026  -0.01473035444539805 
H  5.466837659677617  -0.11002542173678131  -0.06751153241185424 
C  3.8210810103682142  -1.2605567202775392  0.019646441015734647 
H  4.2650561823039865  -2.07942986314156  0.02765971753674811 
C  2.4337082559764864  -1.220033035138889  0.04449078271143058 
C  1.543881616273525  -2.3589687482180057  0.14558407006473914 
C  2.1021450031755213  -3.7049186553265367  0.5078586322399595 
H  2.4647853801027604  -3.6730280052237747  1.3962509349182828 
H  2.796723471435929  -3.9411687891892275  -0.11152027899199932 
H  1.4037897880732777  -4.361982520688999  0.47075323675038194 
C  -0.6630877350940234  -3.163339517624422  0.2911109660284405 
C  -1.0402596091051697  -3.375821856655402  1.6296179824668466 
C  -1.9519777176970112  -4.387037897081779  1.8998516222123736 
H  -2.211780898360078  -4.540548284014917  2.7797337497845795 
C  -2.4824165224606167  -5.175174613345327  0.8938748178683247 
H  -3.0945585423893514  -5.8456968715265285  1.0960267872407514 
C  -2.095865589041777  -4.955885557166718  -0.4137524018366333 
H  -2.4530278892394195  -5.48669443461761  -1.0889219264279408 
C  -1.1810656032096447  -3.957000853204486  -0.7448733980174981 
C  -0.7303683397605008  -3.7859781836002684  -2.1904486306501334 
H  -0.3121519713030161  -2.903961204963401  -2.270903702277255 
C  0.31547617199292666  -4.833513542715507  -2.568851734018146 
H  -0.06182583883780812  -5.711482566285414  -2.4756699424771544 
H  1.0772563295783095  -4.750522264387565  -1.989363123922415 
H  0.5901883289011625  -4.697455469023673  -3.4780222413654154 
C  -1.903904221403048  -3.8384103090927058  -3.173779799033296 
H  -2.28306572298776  -4.720014440795689  -3.1717523177743563 
H  -1.5924454289920036  -3.6256323591654755  -4.0557888379068325 
H  -2.5725788138013694  -3.202878488679822  -2.9068494996597978 
C  -0.502340281273858  -2.5161576484531434  2.7624412281152995 
H  0.14626068469600895  -1.88721072785509  2.3838927265818994 
C  0.2165646267004533  -3.3557864967243747  3.8265510252890556 
H  0.5900648671744233  -2.7754763672704543  4.494364752326065 
H  0.9207458394938772  -3.862259563400647  3.41338708412246 
H  -0.40919238714443007  -3.9558448705457687  4.238416425184162 
C  -1.6248163422116975  -1.7082396699896734  3.3961827863998844 
H  -2.0512731806950306  -1.1698449854144102  2.7245431221960033 
H  -1.2625920982117693  -1.1379955118575946  4.079500645946171 
H  -2.268932099799563  -2.30404928042349  3.784244519815731 
C  -0.5656101357126182  3.2022192413822825  0.06657399078416264 
C  -0.7041992479819459  4.106697258771052  -1.0055240802992982 
C  -1.704096917367835  5.069100382399333  -0.9155758263574061 
H  -1.8156158632572048  5.672360825671081  -1.615277335782173 
C  -2.535714371150563  5.1572504169150735  0.1797399052829308 
H  -3.1984424611251754  5.809277975076087  0.21401470881532597 
C  -2.3791630808461175  4.269145711642603  1.22596647060084 
H  -2.932948721330372  4.339950263797172  1.9682622201425133 
C  -1.4108139069725414  3.2739618327811746  1.1925592152109197 
C  0.17071499259346523  4.069144441615074  -2.249334121086074 
H  0.9202192613470206  3.4621239710107394  -2.074955655134881 
C  -0.6024231282419656  3.532467246157241  -3.4591128669675566 
H  -1.3688785060823194  4.087399569449399  -3.6196484715702995 
H  -0.889804147504305  2.633340951095766  -3.2819153915432024 
H  -0.03371338673905355  3.5396711053125087  -4.23258904264006 
C  0.7458480127769864  5.450598083122875  -2.5678388391977753 
H  1.3923621523087146  5.373651103708092  -3.2733955624628073 
H  1.168630828268068  5.810117499351947  -1.785533240163906 
H  0.03668509346045279  6.0356947472805125  -2.846026756724861 
C  -1.2464563932825519  2.3455963652084364  2.377808022977498 
H  -0.7752772022909884  1.5434643564566002  2.0672732092894353 
C  -2.5725142409618558  1.9001056645386916  2.9992455501875246 
H  -3.0117913393421354  2.6561231265000416  3.3934064666266357 
H  -2.4028073021872256  1.2396891989327734  3.6758846097224653 
H  -3.133701037643635  1.5221329672025916  2.3185881405470243 
C  -0.3699048392964699  3.02031709424106  3.444730776047405 
H  0.49288366973777453  3.2168067549887223  3.072290039959454 
H  -0.2675671744259809  2.4296361090118404  4.195073388483546 
H  -0.7874211600394816  3.8338636076386394  3.7347420559174482 
N  0.3677761775292846  2.117493048279267  8.326672684688672e-15 
N  1.7673078467384347  -0.01940795010148255  -4.440892098500625e-15 
N  0.26491597573228076  -2.0980850981777843  -3.996802888650563e-15 
C  -1.3109915500098785  0.023426770506976984  -2.360593041561687 
C  -1.661705685487566  0.06644572646980718  -3.7173670553915654 
H  -0.9986949143130182  0.11753827645699264  -4.366862912685763 
C  -2.9851176413370135  0.0316003907428873  -4.087573386635138 
H  -3.213500727523197  0.010118695683306513  -4.988645216580709 
C  -3.979662618275473  0.02940012180173552  -3.1237272227360116 
C  -3.699102591609434  0.035381713508432396  -1.7678291911724964 
H  -4.380299318507721  0.05614325936391073  -1.136153825595576 
C  -2.3580498746899576  0.009400747498717844  -1.3824444355734455 
N  -1.8951497116404608  -2.7269853042355408e-15  -0.1048502883595388 
H  -2.453915302804528  0.019572766036950517  0.5484829581240234 
N  -5.368246209717073  0.08521860849383345  -3.551417631936979 
O  -0.10485028835953925  2.220446049250313e-16  -1.895149711640461 
O  -6.248232423523058  0.054300590579698424  -2.7122239476902346 
O  -5.6039898138463915  0.14851725554418677  -4.758301849413423 
O  0.0  0.0  1.88 
H  -0.6511917182125614  0.10287963460190092  2.323400729493708 
