73

Fe  0.0  0.0  0.0 
P  2.66266  0.01159  -0.05741 
O  1.37282  1.21073  0.0 
N  1.37282  -1.21073  0.0 
C  1.62458  -2.65845  -0.06799 
C  1.04623  -3.25355  -1.35176 
C  1.04687  -3.36543  1.17384 
C  3.47086  0.27029  -1.69639 
C  4.32221  -0.99295  -1.94544 
C  2.36824  0.33519  -2.76456 
C  4.32797  1.52498  -1.71155 
C  3.39148  0.05975  1.67926 
C  2.30066  -0.08047  2.75821 
C  4.0049  1.46621  1.86714 
C  4.47204  -1.00495  1.82493 
H  2.71502  -2.86349  -0.06033 
H  1.20213  -4.35275  -1.37458 
H  1.55064  -2.82379  -2.23361 
H  -0.03112  -3.04656  -1.46344 
H  1.18465  -4.46371  1.10159 
H  -0.02166  -3.15454  1.29726 
H  1.55392  -3.04385  2.09646 
H  5.08621  -1.13458  -1.15318 
H  4.83357  -0.96121  -2.92676 
H  3.68982  -1.90704  -1.93859 
H  1.70816  1.21165  -2.60233 
H  1.73218  -0.57131  -2.73771 
H  2.81503  0.40091  -3.78041 
H  5.14702  1.43039  -0.97431 
H  3.70394  2.41474  -1.47347 
H  4.78789  1.65052  -2.71234 
H  1.53516  0.72074  2.65638 
H  2.74834  0.00451  3.7729 
H  1.78071  -1.04157  2.69958 
H  4.80224  1.68076  1.13507 
H  4.44967  1.5865  2.87763 
H  3.2252  2.25473  1.74606 
H  5.26592  -0.834  1.06947 
H  4.03936  -2.01303  1.67892 
H  4.94055  -0.94736  2.8289 
O  -1.05663  1.44486  0.0 
O  -1.05663  -1.44486  0.0 
C  -2.42428  1.24275  0.02352 
C  -3.01421  -0.12684  -0.19598 
H  -4.10074  -0.15011  -0.30721 
C  -2.40481  -1.31811  -0.14111 
C  -3.16614  2.58155  -0.18454 
C  -3.24639  -2.5995  -0.24721 
C  -2.65917  3.26904  -1.47077 
H  -2.81817  2.61887  -2.35661 
H  -3.19014  4.23206  -1.63106 
H  -1.57181  3.49938  -1.3986 
C  -4.68733  2.38475  -0.28328 
H  -5.19594  3.35876  -0.4296 
H  -4.93301  1.74308  -1.15749 
H  -5.07572  1.91011  0.64258 
C  -2.8409  3.48072  1.02761 
H  -3.18154  2.99751  1.96919 
H  -1.74206  3.64384  1.1169 
H  -3.32499  4.4733  0.93772 
C  -2.47147  -3.83355  0.24072 
H  -2.12798  -3.68341  1.28518 
H  -1.59785  -4.05973  -0.38959 
H  -3.13685  -4.72013  0.24007 
O  -4.47864  -2.49416  0.48338 
C  -3.61043  -2.76486  -1.73623 
H  -4.54865  -2.22128  -1.9775 
H  -3.7417  -3.83178  -2.00698 
H  -2.81253  -2.35367  -2.39831 
C  -4.31684  -2.22653  1.86894 
H  -3.95757  -3.12058  2.41353 
H  -5.31412  -1.97952  2.28723 
H  -3.67955  -1.34195  2.07656 
