92

Ru  0.0  0.0  0.0 
N  1.7581654536285596  0.011165230031932538  -3.637347751969422e-15 
O  0.43803118185189305  -2.1599734952642398  -9.630202028132864e-17 
O  4.156913445810303  -7.317034114606519  0.11231943395771146 
H  4.9526529863586  -7.259511893820127  0.3006015035336212 
N  0.2038033645195475  2.148808265232307  3.816916499097637e-15 
N  2.5101461369022076  -1.1407697626813524  -0.031230506655179704 
C  1.5343657009401963  2.3370138525561317  0.022575779032306027 
C  3.614342592857012  -6.066779164877112  0.03659645063922039 
C  -0.6142053424596401  3.24026335333207  0.059624541653398824 
C  1.6943765015198573  -2.220892658161972  -0.011819616755198246 
C  -0.09807353694580723  4.556520256445149  0.08857129180252162 
C  2.392568162248677  -3.545999495452767  -0.01509599492647055 
C  -1.0165713445291746  5.653568720733223  0.05693864304015444 
H  -0.6938245760849842  6.525237240953408  0.04407573839215412 
C  2.3603448159466467  1.139200637218169  0.0010127844607338834 
H  3.288883860765334  1.192115645786499  -0.011727471243700166 
C  2.250457814467994  -5.9398815809061585  -0.1168732025860227 
H  1.7273995306909005  -6.703516743474133  -0.20658100749696734 
C  -2.3505653101076893  5.432248888841324  0.04586246087072706 
H  -2.9368715822315075  6.153573498522647  0.04046869258123541 
C  -2.0061093358373414  3.0759951648630697  0.06127544332292859 
H  -2.3584516016131225  2.2149067932303828  0.07525950521340753 
C  1.655688926924509  -4.704892461605701  -0.13989353316069517 
H  0.7337004504113938  -4.647193082672174  -0.24264941302998097 
C  1.3044015361301111  4.730968556918593  0.12348017122630532 
H  1.6704098953191486  5.585617718512209  0.1602941847412274 
C  3.7482150532833156  -3.6731730187589067  0.1294231795730349 
H  4.269220140486105  -2.907202747381268  0.21545516475576973 
C  4.362336840992677  -4.916455775198918  0.15038904229275718 
H  5.285862132575007  -4.97371836133487  0.24315655835734318 
C  2.1053536218926956  3.6450543493201955  0.1005030075956675 
H  3.029090543825908  3.7469277389260602  0.13648191179753957 
C  -2.8559856690780068  4.135552588568952  0.04350119039479129 
H  -3.7746599663597458  3.9937401461069775  0.02832401421236911 
C  -2.547036419792463  0.3347459063256002  -1.6609083366563535 
C  -1.813477648237742  0.9397577454548491  -2.724060434518458 
H  -2.268898508317824  1.3528211426928534  -3.3772119943161396 
C  -0.491346676677316  0.8015672698457066  -2.9950363494843892 
C  -2.714292846187978  -0.7172080284120178  0.5036750105538058 
C  -3.9628863761742643  -0.30770038437549413  0.9730898551763874 
H  -4.381645649780056  0.41159239896112026  0.5969976954481886 
C  -4.541462095736745  -0.9701806967963333  2.034674096952605 
H  -5.364025210585683  -0.6997539264924996  2.3341240159591994 
C  -3.9036894947418546  -2.0316633058173754  2.634652088354021 
H  -4.320279191706666  -2.3924691351567984  3.421616857512959 
C  -2.6737089133911613  -2.4403132224904427  2.1707709989536355 
H  -2.297902600780443  -3.2313949773240447  2.580661926605506 
C  -2.082095467520612  -1.779585270920005  1.110725238300475 
H  -1.2014491689086548  -2.004885484406635  0.8418934125358462 
C  -3.970963189073567  0.04766757506448967  -2.012084129451133 
C  -4.420396854542433  -1.2498838941422652  -2.1633666304307386 
H  -3.8903351880075885  -1.9711548624193453  -1.95188918484622 
C  -5.706213503943327  -1.503960104139382  -2.618144811126398 
H  -5.999173011191433  -2.5006742698157054  -2.6436810413316545 
C  -6.528131192761492  -0.45750718581964944  -2.9182128409927617 
H  -7.291161933856995  -0.5245248203170312  -3.1455754694293905 
C  -6.107662343939196  0.8360568618040244  -2.7465934310604574 
H  -6.5966983523994625  1.6366509335006514  -2.924959388556408 
C  -4.831290974161968  1.098148172362874  -2.298425458819656 
H  -4.554143241599325  1.97927947236635  -2.2290754300556253 
C  0.07038545228545656  1.3156742674189041  -4.2643393985382305 
C  -0.6463407730161956  1.287214803828689  -5.457022791940292 
H  -1.4370289211986123  0.854119048902743  -5.47459491159085 
C  -0.1135872644013991  1.807500700864449  -6.62079124588824 
H  -0.5633346646081856  1.6668401934921122  -7.462175930603299 
C  1.1289179018585647  2.367967807021808  -6.638985605810201 
H  1.4812090448812796  2.799356004221209  -7.458623686834235 
C  1.8765710662766524  2.382564746698718  -5.482434675203282 
H  2.7413865205866985  2.765698070767507  -5.559347781853506 
C  1.3451338635806873  1.8622469814085783  -4.319210576968408 
H  1.8592356506836742  1.9770181731947576  -3.542131072648855 
S  0.6338927633296422  -5.01205505095296e-16  -1.9605218379549647 
N  -1.9938927633296413  3.183495977429801e-16  -0.5194781620450357 
O  0.0  0.0  1.88 
O  -0.9643081704186061  2.053352268274857  2.67998456537262 
O  -2.318180286692342  0.02273109212612745  2.6505293153681833 
S  -1.0021217599780776  0.6053161117679227  2.7851056474316147 
C  -0.4338361697801144  0.21796534675078238  4.42098554608371 
C  0.9286966330522985  0.0969703896118565  4.673289393760669 
H  1.5549199220000627  0.1864191380527226  3.964259518662442 
C  1.3701466961187259  -0.15620349792040483  5.9660683093105975 
H  2.300334591268412  -0.2465666142953437  6.135427710927412 
C  0.4626272672075892  -0.27973766600612004  7.020024648759331 
C  -0.9006441434867848  -0.18364884418769545  6.745229271969766 
H  -1.5306119547409929  -0.29156924044088006  7.449036429404342 
C  -1.350067444090275  0.06821236621892213  5.453505989851194 
H  -2.2807689197617753  0.13760087737159776  5.2773376110117844 
C  0.9602338724211013  -0.5186618523319394  8.424949223117835 
H  1.0921125068317559  0.34142448983836726  8.875110549531026 
H  1.8106676596937854  -1.0043671913790688  8.391979735919048 
H  0.30079970035523473  -1.0492371734517043  8.919032304522636 
