16
Ligand ID: unq_CSD-PECFAE-01-e  ===  Stoichiometry: C7H7O  ===  Charge: -1  ===  Donors: O
Cu  0.0  0.0  0.0 
O  -1.0200000000000005  0.4483999999999999  -1.4727000000000001 
C  -1.5945  1.0507  -2.5647 
C  -1.4192999999999998  2.3726  -2.8089 
C  -2.0511  2.9304  -3.9129 
C  -2.8210000000000006  2.1830000000000003  -4.7895 
C  -2.9890000000000003  0.8668  -4.4953 
C  -2.365  0.2847999999999997  -3.4034 
C  -3.4832  2.8119  -5.9937000000000005 
H  -0.8597999999999999  2.9197  -2.2325999999999997 
H  -1.9548000000000005  3.8764999999999996  -4.0828 
H  -3.5616000000000003  0.3222999999999998  -5.0837 
H  -2.4745  -0.6779000000000002  -3.2183 
H  -2.9822  2.6352999999999995  -6.797499999999999 
H  -4.3669  2.4819  -6.115 
H  -3.5373  3.7711  -5.902699999999999 
16
Ligand ID: unq_CSD-PAJLER-01-a  ===  Stoichiometry: C5H9N  ===  Charge: 0  ===  Donors: C
Cu  0.0  0.0  0.0 
N  -2.1637  0.0  2.3502 
C  -1.3736  0.0  1.5359999999999996 
C  -3.1532999999999998  0.0  3.4241 
C  -4.504099999999999  0.0  2.7786 
C  -2.9446  1.2508  4.2216 
H  -5.1884  0.0  3.4408000000000003 
H  -4.606199999999999  0.7752999999999997  2.2333 
H  -3.6441999999999997  1.3477999999999994  4.8504 
H  -2.9343  2.0003  3.6337 
H  -2.1129  1.2005  4.6779 
C  -2.9446  -1.2508000000000001  4.2216 
H  -4.606199999999999  -0.7753000000000001  2.2333 
H  -3.6441999999999997  -1.3478  4.8504 
H  -2.9343  -2.0003  3.6337 
H  -2.1129  -1.2005000000000003  4.6779 
12
Ligand ID: unq_CSD-PECBAB-01-a  ===  Stoichiometry: C3H5OS2  ===  Charge: -1  ===  Donors: S
Cu  0.0  0.0  0.0 
S  -1.4890000000000003  -1.7834000000000003  0.5670000000000002 
S  -3.5431000000000004  -2.7673  2.4019999999999992 
O  -2.2054000000000005  -0.4862000000000002  2.6571 
C  -2.4281000000000006  -1.6057000000000001  1.9724000000000004 
C  -2.9313000000000002  -0.22940000000000005  3.8980999999999995 
H  -3.8571000000000004  -0.5715000000000003  3.8169000000000004 
H  -2.9769000000000005  0.7470999999999997  4.0573999999999995 
C  -2.2488  -0.8970000000000002  5.0578 
H  -2.7495000000000003  -0.7157  5.8805 
H  -1.3378000000000005  -0.5493000000000001  5.146699999999999 
H  -2.2139  -1.8642000000000003  4.9046 
16
Ligand ID: unq_CSD-PAHWOL-01-a  ===  Stoichiometry: C2H6NO4S2  ===  Charge: -1  ===  Donors: N
Cu  0.0  0.0  0.0 
C  0.23580000000000023  -2.6444  -2.8681 
H  0.9878999999999998  -3.2503  -2.6982999999999997 
H  0.5741000000000005  -1.7355  -3.0081999999999987 
H  -0.2474999999999996  -2.9403  -3.6685 
C  0.2998000000000003  -4.2835  1.360100000000001 
H  0.9472000000000005  -4.7442  1.9347999999999992 
H  -0.0519999999999996  -4.9112  0.6951 
H  -0.4365999999999999  -3.9409  1.9079000000000015 
N  -0.04889999999999972  -2.0937  -0.21649999999999991 
O  -1.8731999999999998  -1.6712000000000002  -1.7400000000000002 
O  -1.2961999999999998  -4.0181000000000004  -1.2899999999999991 
O  1.609  -2.0535  1.5528000000000013 
O  2.0578000000000003  -3.5132000000000003  -0.3722999999999992 
S  -0.855  -2.6599000000000004  -1.4847000000000001 
S  1.0925000000000002  -2.9428  0.539200000000001 
7
Ligand ID: unq_CSD-PAFKOY-01-a  ===  Stoichiometry: C2H3N  ===  Charge: 0  ===  Donors: C
Cu  0.0  0.0  0.0 
N  -0.5288999999999997  -3.7537000000000003  0.2981999999999978 
C  -0.28359999999999985  -2.658  0.10389999999999944 
C  -0.8347  -5.1237  0.6097999999999999 
H  -0.15510000000000002  -5.7076  0.21369999999999933 
H  -1.7143  -5.3524  0.24540000000000006 
H  -0.8419999999999999  -5.2432  1.5829999999999984 
15
Ligand ID: unq_CSD-OZOYEI-01-c  ===  Stoichiometry: C4H9N  ===  Charge: -2  ===  Donors: N
Cu  0.0  0.0  0.0 
N  -0.6103000000000001  -0.07249999999999979  1.8309000000000002 
C  -0.9864000000000002  -0.15680000000000005  3.1536999999999997 
C  -0.7770000000000001  1.181  3.8555 
H  0.10550000000000015  1.5069  3.6679000000000004 
H  -0.8809999999999998  1.0644999999999998  4.8031 
H  -1.4255999999999998  1.814  3.5383000000000004 
C  0.015499999999999847  -1.1622999999999997  3.9135999999999997 
H  -0.008500000000000174  -2.0218  3.4857000000000005 
H  -0.25729999999999986  -1.2543  4.83 
H  0.9081000000000001  -0.8127  3.8785 
C  -2.3588  -0.6414  3.3791 
H  -2.9763  -0.09689999999999976  2.8864 
H  -2.5656999999999996  -0.5920999999999998  4.3158 
H  -2.4288  -1.553  3.0848000000000004 
15
Ligand ID: unq_CSD-PAPVUY-01-a  ===  Stoichiometry: C4H9O  ===  Charge: -1  ===  Donors: O
Cu  0.0  0.0  0.0 
C  2.6166  -0.8199000000000001  1.8625999999999996 
C  3.1853  -2.0363  1.354 
H  2.468  -2.6745  1.1587999999999994 
H  3.7899  -2.4188  2.0226999999999995 
H  3.6841  -1.8431000000000002  0.5324999999999998 
C  1.8388  -1.064  3.2375999999999996 
H  1.4506000000000001  -0.22020000000000017  3.5462 
H  2.4649  -1.4019000000000001  3.9108 
H  1.1247  -1.7200000000000002  3.0968999999999998 
C  3.6711  0.27029999999999976  2.1891 
H  4.1361  0.5315999999999996  1.3675999999999995 
H  4.3195  -0.08570000000000011  2.8320999999999996 
H  3.2235  1.0524  2.5748999999999995 
O  1.6643  -0.32040000000000024  0.9543999999999997 
15
Ligand ID: unq_CSD-PAFLIT-01-a  ===  Stoichiometry: C3H9NSi  ===  Charge: -2  ===  Donors: N
Cu  0.0  0.0  0.0 
Si  3.423  -1.1266999999999998  -0.6210000000000004 
N  1.8033  -0.6300999999999999  -0.3091000000000008 
C  3.4996  -2.8882000000000003  -1.213 
H  3.0368000000000004  -2.9633000000000003  -2.0739 
H  3.0666  -3.4736000000000002  -0.5553000000000008 
H  4.435700000000001  -3.1559  -1.3212000000000002 
C  4.4527  -1.0214  0.9456999999999995 
H  4.1097  -1.6603999999999999  1.6056999999999988 
H  4.398000000000001  -0.11359999999999992  1.3121 
H  5.385800000000001  -1.2340000000000002  0.7382 
C  4.1969  -0.03259999999999996  -1.9282000000000004 
H  3.5887000000000002  0.04360000000000008  -2.6919000000000004 
H  5.0455000000000005  -0.42490000000000006  -2.224 
H  4.3627  0.8573999999999999  -1.5529000000000002 
7
Ligand ID: unq_CSD-PAFCIJ-01-b  ===  Stoichiometry: C2H3N  ===  Charge: 0  ===  Donors: N
Cu  0.0  0.0  0.0 
N  -2.0105999999999997  0.11529999999999996  0.3854999999999995 
C  -3.1150999999999995  0.10030000000000028  0.6735999999999995 
C  -4.5227  0.07170000000000032  1.0629 
H  -4.9831  0.8428  0.6066000000000003 
H  -4.7003  -0.1503000000000001  2.0469999999999997 
H  -4.9984  -0.6393  0.5378999999999996 
9
Ligand ID: unq_CSD-PAHNAR-01-a  ===  Stoichiometry: C2H4O2  ===  Charge: 0  ===  Donors: O
Cu  0.0  0.0  0.0 
O  -1.8931999999999998  -0.009100000000000108  -1.6000999999999994 
O  -2.573  1.8983000000000008  -2.5168 
H  -3.0410999999999997  1.929999999999998  -1.8449 
C  -1.8725999999999998  0.7904  -2.5085999999999995 
C  -1.0181999999999998  0.6379000000000001  -3.7193999999999994 
H  -0.3443999999999998  -0.02490000000000059  -3.5547999999999997 
H  -0.5982999999999998  1.4779999999999998  -3.9211999999999994 
H  -1.5615999999999999  0.3658000000000001  -4.462299999999999 
5
Ligand ID: unq_CSD-OZOJUJ-01-b  ===  Stoichiometry: CH3  ===  Charge: -1  ===  Donors: C
Cu  0.0  0.0  0.0 
C  1.8861  -0.7906  0.12899999999999956 
H  1.8658  -1.5925  0.6929999999999996 
H  2.4915000000000003  -0.12849999999999984  0.5234999999999994 
H  2.2013999999999996  -1.0302  -0.7666000000000004 
11
Ligand ID: unq_CSD-PAJHAM-01-a  ===  Stoichiometry: C2H6OS  ===  Charge: 0  ===  Donors: O
Cu  0.0  0.0  0.0 
O  0.6668  2.0392  0.2744 
S  -0.043  3.0964  1.1108 
C  0.7842  4.6161  0.716 
H  1.7457  4.5158  0.8769 
H  0.4321  5.3359  1.2808 
H  0.6314  4.8359  -0.2264 
C  0.5856  2.8967  2.7653 
H  0.3121  2.0231  3.1155 
H  0.2263  3.6052  3.3395 
H  1.564  2.9518  2.7522 
15
Ligand ID: unq_CSD-PAKHEP-01-b  ===  Stoichiometry: C3H9OSi  ===  Charge: -1  ===  Donors: O
Cu  0.0  0.0  0.0 
Si  -3.3185000000000002  -0.031500000000001194  0.28710000000000013 
O  -1.747399999999999  0.2800999999999991  -0.1459999999999999 
C  -3.2823  -1.4448000000000008  1.475 
H  -2.8717999999999995  -2.2058  1.0545 
H  -4.1795  -1.6683000000000003  1.7337000000000002 
H  -2.7768999999999995  -1.1974  2.2525 
C  -4.0446  1.4855999999999998  1.0500000000000003 
H  -3.5141999999999998  1.749699999999999  1.8047000000000004 
H  -4.9418999999999995  1.3000999999999987  1.3389000000000002 
H  -4.0577  2.193999999999999  0.40260000000000007 
C  -4.2942  -0.464500000000001  -1.2198999999999998 
H  -4.2249  0.24770000000000003  -1.8600999999999999 
H  -5.2141  -0.5901000000000014  -0.9797999999999998 
H  -3.9486  -1.2736  -1.6029999999999998 
15
Ligand ID: unq_CSD-PAFGAG-01-e  ===  Stoichiometry: C5H9  ===  Charge: -3  ===  Donors: C
Cu  0.0  0.0  0.0 
C  -1.2059999999999995  1.2332  -0.23570000000000046 
C  -2.3689999999999998  2.1736999999999993  -0.3792 
C  -2.5794999999999995  2.4975999999999994  -1.8635000000000002 
H  -2.7404999999999995  1.6845999999999997  -2.3481 
H  -1.7944999999999998  2.926899999999999  -2.2116000000000002 
H  -3.3343999999999996  3.0842  -1.9599000000000002 
C  -2.0980999999999996  3.473  0.3934999999999995 
H  -2.8467999999999996  4.067099999999999  0.2953000000000001 
H  -1.3083  3.894099999999999  0.04499999999999993 
H  -1.9701999999999997  3.272899999999999  1.3232999999999997 
C  -3.6213999999999995  1.4796999999999993  0.1921999999999997 
H  -4.3778999999999995  2.0619999999999994  0.10470000000000024 
H  -3.4787999999999997  1.2756999999999996  1.12 
H  -3.7861999999999996  0.6662999999999997  -0.29200000000000026 
16
Ligand ID: unq_CSD-PALTOM-01-b  ===  Stoichiometry: C5H9N  ===  Charge: 0  ===  Donors: N
Cu  0.0  0.0  0.0 
N  -1.5557  -0.8734000000000002  1.2818000000000005 
C  -2.425  -1.3948999999999998  1.8045000000000009 
C  -3.5398  -2.0995999999999997  2.4665 
C  -2.9299  -3.0886000000000005  3.464600000000001 
C  -4.4253  -1.0610999999999997  3.172699999999999 
C  -4.34  -2.8226000000000004  1.3760000000000012 
H  -3.6496  -3.5387000000000004  3.8545000000000016 
H  -2.4455999999999998  -2.6224  4.141400000000001 
H  -2.3075  -3.7362  3.0515000000000008 
H  -5.1434  -1.5817000000000005  3.6027000000000022 
H  -3.9428  -0.5978000000000003  3.8523999999999994 
H  -4.7451  -0.3612000000000002  2.564399999999999 
H  -5.0877  -3.2984999999999998  1.7861000000000011 
H  -3.799  -3.4568000000000003  0.9130000000000003 
H  -4.689299999999999  -2.199  0.7643000000000022 
12
Ligand ID: unq_CSD-PAHNUJ-01-d  ===  Stoichiometry: C3H6N2  ===  Charge: 0  ===  Donors: N
Cu  0.0  0.0  0.0 
N  0.9042000000000003  -1.3981000000000001  -1.1390999999999998 
N  1.8306000000000004  -3.5551000000000004  -1.8407 
C  1.3578999999999999  -2.4024  -1.4728999999999999 
C  3.2577  -3.7314  -2.1509 
H  3.7390999999999996  -2.8993  -1.9594999999999998 
H  3.3598999999999997  -3.958  -3.0995 
H  3.6239999999999997  -4.4551  -1.6012 
C  0.923  -4.6924  -2.0255 
H  0.0011999999999998678  -4.4058  -1.8567 
H  1.1630000000000003  -5.4072000000000005  -1.3994 
H  0.9983000000000004  -5.0246  -2.9449 
10
Ligand ID: unq_CSD-PAWQIO-01-a  ===  Stoichiometry: C3H5O  ===  Charge: -1  ===  Donors: C
Cu  0.0  0.0  0.0 
O  -0.41110000000000113  -2.0968999999999998  -3.1706000000000003 
C  -0.6592000000000002  -0.06989999999999874  -1.982099999999999 
H  -1.6207000000000011  -0.3069999999999986  -1.9872999999999994 
H  -0.5728000000000009  0.8345000000000002  -2.3766 
C  0.06620000000000026  -1.0276999999999994  -2.836499999999999 
C  1.4344999999999999  -0.6120999999999999  -3.3057 
H  1.7683999999999997  -1.450099999999999  -3.2278000000000002 
H  1.3095999999999997  -0.3155000000000001  -4.153499999999999 
H  1.9894999999999996  -0.1144999999999996  -2.7807999999999993 
13
Ligand ID: unq_CSD-PAYMAF-01-a  ===  Stoichiometry: C3H5N3S  ===  Charge: 0  ===  Donors: N
Cu  0.0  0.0  0.0 
S  3.1489000000000003  2.9871999999999996  1.2927000000000002 
C  1.6494  2.4627  0.6050000000000002 
N  1.5551  1.1593  0.5031000000000001 
N  2.6901  0.49879999999999924  0.9732000000000001 
C  3.5923  1.2914999999999992  1.4002999999999999 
N  0.7151999999999998  3.314099999999998  0.19450000000000012 
H  -0.008500000000000174  3.0180999999999987  -0.16510000000000002 
H  0.8335999999999999  4.160299999999998  0.2885 
C  4.9102  0.8729999999999993  1.9443 
H  5.6081  1.1675999999999984  1.3550000000000002 
H  4.9361  -0.08360000000000056  2.0189000000000004 
H  5.0373  1.2645  2.8119999999999994 
9
Ligand ID: unq_CSD-PAXDOI-01-b  ===  Stoichiometry: C2H5O  ===  Charge: -1  ===  Donors: C
Cu  0.0  0.0  0.0 
O  -1.5547000000000004  1.3016000000000005  2.2171999999999996 
C  -0.23970000000000002  1.2536000000000005  1.65 
H  0.4001000000000001  0.9944000000000006  2.3242 
H  0.04750000000000032  2.1571  1.3444999999999996 
C  -1.6653000000000002  2.2723999999999993  3.2395 
H  -0.9466999999999999  2.1424000000000003  3.8917999999999995 
H  -2.533  2.1784999999999997  3.6855999999999995 
H  -1.5937000000000001  3.1682000000000006  2.8489 
11
Ligand ID: unq_CSD-PABGEF-01-a  ===  Stoichiometry: C3H6O  ===  Charge: 0  ===  Donors: O
Cu  0.0  0.0  0.0 
O  1.8813000000000004  -1.5545000000000009  0.5510999999999999 
C  2.5253000000000005  -2.181800000000001  1.3240999999999996 
C  1.9854000000000003  -2.5284000000000004  2.6430999999999996 
H  1.0510000000000002  -2.3116000000000003  2.6719999999999997 
H  2.4512  -2.0326000000000004  3.3187000000000006 
H  2.101  -3.4686000000000003  2.7979000000000003 
C  3.8842  -2.667700000000001  0.9666999999999994 
H  4.0133  -2.586400000000001  0.01869999999999994 
H  3.9724000000000004  -3.5889000000000006  1.2253999999999996 
H  4.5434  -2.1420000000000012  1.4261999999999997 
15
Ligand ID: unq_CSD-PAGMIT-01-a  ===  Stoichiometry: C4H3F6O  ===  Charge: -1  ===  Donors: O
Cu  0.0  0.0  0.0 
F  0.9252999999999998  1.6094  -3.9162 
F  1.7234999999999998  3.4725  -3.5042 
F  -0.1412  2.8602  -2.5927 
F  3.1511000000000005  0.5778999999999996  -3.1531 
F  3.9615  2.4970999999999997  -2.6685 
F  3.8851000000000004  0.9848999999999997  -1.1637 
O  1.1971999999999998  0.7497999999999996  -1.3498999999999999 
C  1.8362999999999998  1.9146999999999998  -1.7241 
C  1.9705000000000001  2.9478999999999997  -0.6296999999999997 
C  1.083  2.4707999999999997  -2.9537 
C  3.2465  1.4707999999999997  -2.1624999999999996 
H  2.4524999999999997  2.5759999999999996  0.1615000000000002 
H  2.4113999999999995  3.7339  -0.8768999999999998 
H  1.0904999999999998  3.1899999999999995  -0.25059999999999993 
16
Ligand ID: unq_CSD-PAGMIT-01-d  ===  Stoichiometry: C5H10  ===  Charge: -2  ===  Donors: C
Cu  0.0  0.0  0.0 
C  1.0050000000000001  -0.2431000000000001  1.5344000000000002 
C  1.4197  0.19019999999999992  2.881 
C  2.8014  0.6638000000000002  2.8150999999999997 
C  0.38939999999999997  1.3304999999999998  3.3755 
C  1.2268000000000001  -0.8975000000000004  3.8865000000000003 
H  1.5037999999999998  -1.0905  1.3976000000000002 
H  3.404  -0.00280000000000058  2.5349 
H  2.8992000000000004  1.4181999999999997  2.1557999999999997 
H  3.1201  1.0321999999999996  3.6557 
H  0.5497999999999998  1.6989  4.216100000000001 
H  0.4244999999999999  2.1549999999999994  2.7492000000000005 
H  -0.5335000000000001  1.0672999999999995  3.3096 
H  0.2558  -1.0729000000000002  3.9029000000000003 
H  1.6923000000000001  -1.6167000000000002  3.6887000000000003 
H  1.4332999999999998  -0.5291000000000001  4.76 
16
Ligand ID: unq_CSD-PALJAP-01-b  ===  Stoichiometry: C5H8N2  ===  Charge: 0  ===  Donors: C
Cu  0.0  0.0  0.0 
N  1.934  -1.9549  1.3452000000000002 
N  2.6181  -1.4715000000000003  -0.6182 
C  1.6281  -1.1958000000000002  0.2622 
C  3.0873999999999997  -2.7006  1.1402 
H  3.4894999999999996  -3.3079  1.7499000000000002 
C  3.5215999999999994  -2.3919  -0.09499999999999997 
H  4.2949  -2.7354000000000003  -0.5265 
C  1.145  -1.9655  2.5718 
H  0.42600000000000005  -1.3019000000000003  2.5032 
H  1.7207999999999999  -1.7449000000000001  3.3333 
H  0.7563  -2.8561  2.7021 
C  2.7675  -0.8361000000000001  -1.9262 
H  1.9688999999999999  -0.3027000000000002  -2.1237 
H  2.8783000000000003  -1.5256  -2.6135 
H  3.5550999999999995  -0.25260000000000016  -1.9178 
15
Ligand ID: unq_CSD-PAFZOO-01-c  ===  Stoichiometry: C4H6N2S2  ===  Charge: 0  ===  Donors: N
Cu  0.0  0.0  0.0 
S  0.8084999999999996  3.1615  6.120199999999999 
S  2.0275999999999996  0.8128000000000011  4.8078 
N  0.3782999999999994  1.1126000000000005  1.5924 
N  0.3152999999999997  2.470600000000001  3.6342000000000003 
C  0.40219999999999967  1.700000000000001  2.5782000000000003 
C  0.9765999999999995  2.1806  4.7318999999999996 
C  -0.4107000000000003  4.348000000000001  5.5541 
H  -0.5797000000000003  5.005700000000001  6.2600999999999996 
H  -1.2451000000000003  3.880700000000001  5.337 
H  -0.07540000000000013  4.805  4.7545 
C  2.5965999999999996  0.811300000000001  6.5138 
H  3.1815999999999995  0.039400000000000546  6.662099999999999 
H  1.8239999999999998  0.7553999999999998  7.115599999999999 
H  3.0919  1.636800000000001  6.693199999999999 
