14
Ligand ID: unq_CSD-PACMOV-01-b  ===  Stoichiometry: C8H5  ===  Charge: -1  ===  Donors: C
Cu  0.0  0.0  0.0 
C  -1.5982  1.5551000000000004  1.0110999999999999 
C  -2.4402999999999997  2.3042  1.4707999999999997 
C  -3.3722999999999996  3.2445000000000004  2.0465 
C  -2.9192  4.334200000000001  2.7901 
C  -3.8091999999999997  5.2425  3.3331999999999997 
C  -5.1667000000000005  5.090300000000001  3.1523 
C  -5.6469000000000005  4.009500000000001  2.4334 
C  -4.7591  3.103300000000001  1.8731999999999998 
H  -2.0336  4.444599999999999  2.9375 
H  -3.4189  5.930400000000001  3.8756999999999997 
H  -5.7860000000000005  5.7217  3.4922999999999997 
H  -6.6581  3.820500000000001  2.3196 
H  -5.1227  2.356  1.3794 
26
Ligand ID: unq_CSD-PCPCCR01-01-b  ===  Stoichiometry: C15H10  ===  Charge: 0  ===  Donors: C
Cu  0.0  0.0  0.0 
C  0.024099999999999788  1.6046999999999993  -1.2653999999999999 
C  -0.48360000000000003  2.8611000000000004  -1.646 
C  0.4171  2.247299999999999  -2.4555 
C  -1.362  3.959999999999999  -1.3319999999999999 
C  -1.4605000000000001  5.0639  -2.1919999999999997 
C  -2.2997  6.1226  -1.8620999999999999 
C  -3.037  6.094099999999999  -0.6747999999999998 
C  -2.9348  4.9975000000000005  0.18840000000000012 
C  -2.1048  3.928799999999999  -0.13959999999999972 
C  1.2104  2.1745  -3.659 
C  2.1155999999999997  1.1117999999999997  -3.8017 
C  2.8827  1.0013999999999994  -4.9597999999999995 
C  2.7419000000000002  1.9437999999999995  -5.9814 
C  1.8418  3.003499999999999  -5.845599999999999 
C  1.0783  3.1251999999999995  -4.6849 
H  -0.8867  5.092599999999999  -3.1063 
H  -2.3841  6.969099999999999  -2.5275 
H  -3.6848  6.9205000000000005  -0.42259999999999964 
H  -3.4992  4.9808  1.1091000000000002 
H  -2.0313  3.077499999999999  0.5210000000000004 
H  2.2188  0.3788999999999998  -3.0151999999999997 
H  3.5854  0.1886000000000001  -5.0695 
H  3.3322000000000003  1.8562999999999992  -6.8815 
H  1.7367999999999997  3.7272999999999996  -6.6402 
H  0.3875000000000002  3.9481  -4.5756 
14
Ligand ID: unq_CSD-PEBGUA-01-b  ===  Stoichiometry: C7H5O  ===  Charge: -1  ===  Donors: C
Cu  0.0  0.0  0.0 
O  0.33110000000000017  1.6829  2.2869 
C  -0.4591000000000003  1.3305000000000007  1.4464000000000006 
C  -1.8859  1.8108000000000004  1.4439000000000002 
C  -2.722  1.670300000000001  0.3291000000000004 
H  -2.3800999999999997  1.3034999999999997  -0.47779999999999934 
C  -4.0495  2.0686999999999998  0.4034000000000004 
H  -4.6104  1.9848  -0.3593000000000002 
C  -4.5604  2.5831999999999997  1.5765000000000002 
H  -5.4780999999999995  2.8247  1.6277 
C  -3.7294  2.7521000000000004  2.6904000000000003 
H  -4.0737  3.1295  3.4908 
C  -2.4004999999999996  2.365  2.6145000000000005 
H  -1.834  2.4794  3.3687000000000005 
15
Ligand ID: unq_CSD-PASGEW-01-a  ===  Stoichiometry: C7H4IN2  ===  Charge: -1  ===  Donors: N
Cu  0.0  0.0  0.0 
N  1.8079  0.012099999999999778  -1.0385999999999997 
N  3.8461  0.7136  -2.0669000000000004 
C  2.7531  0.36519999999999975  -1.4999000000000002 
C  4.7683  1.6012999999999997  -1.4290000000000003 
C  4.4605  2.2834  -0.29159999999999986 
C  5.3642  3.1469  0.2522000000000002 
C  6.5769  3.3259000000000003  -0.3414999999999999 
C  6.884599999999999  2.6412999999999998  -1.479 
C  5.9809  1.7802000000000002  -2.0227000000000004 
I  8.021  4.6973  0.524 
H  3.6092999999999993  2.1598  0.13569999999999993 
H  5.1632  3.6123  1.0667 
H  7.735700000000001  2.7666999999999997  -1.9066999999999998 
H  6.181799999999999  1.3142  -2.8377 
16
Ligand ID: unq_CSD-PAQLEY-01-c  ===  Stoichiometry: C8H4NO2  ===  Charge: -1  ===  Donors: N
Cu  0.0  0.0  0.0 
N  1.3037  0.7045999999999992  -1.4164000000000003 
O  0.8269000000000002  2.9633000000000003  -1.249 
O  2.7962000000000002  3.142199999999999  -3.4415000000000004 
C  2.1866  -0.05059999999999931  -2.2156000000000002 
C  2.3666000000000005  -1.4166999999999987  -2.1884 
C  3.3298  -1.9568999999999992  -3.0503 
C  4.0641  -1.1762999999999995  -3.9102 
C  3.8835  0.19150000000000134  -3.9499000000000004 
C  2.9469  0.7498000000000005  -3.0859 
C  2.4907  2.119500000000002  -2.8809 
C  1.4252000000000002  2.0183  -1.7386000000000004 
H  1.8683  -1.9587000000000003  -1.6193 
H  3.4774  -2.8747999999999987  -3.0399000000000003 
H  4.6892  -1.5739  -4.4729 
H  4.3726  0.7226999999999997  -4.5336 
22
Ligand ID: unq_CSD-PASTAH-02-a  ===  Stoichiometry: C8H8N4O  ===  Charge: 0  ===  Donors: O-N
Cu  0.0  0.0  0.0 
O  -0.4382  0.0706  -1.8955 
N  3.4389  1.4742  -1.6155 
H  3.9635  1.5151  -2.2961 
N  1.6316  1.0171  -0.3934 
N  1.7015  0.3292  -2.6946 
H  2.2399  0.1408  -3.3384 
N  0.0075  -0.376  -4.0485 
H  -0.8102  -0.6016  -4.1885 
H  0.5786  -0.4077  -4.6913 
C  3.6989  1.9677  -0.3576 
C  4.8249  2.5987  0.1492 
H  5.5784  2.7465  -0.376 
C  4.7748  2.9977  1.4725 
H  5.5114  3.4185  1.8536 
C  3.6301  2.7762  2.246 
H  3.6177  3.0677  3.1289 
C  2.5151  2.1335  1.733 
H  1.7561  2.0013  2.2532 
C  2.5668  1.6926  0.4098 
C  2.2169  0.9179  -1.5879 
C  0.3865  0.0172  -2.852 
13
Ligand ID: unq_CSD-PAPPUS-01-a  ===  Stoichiometry: C6Cl5O  ===  Charge: -1  ===  Donors: O
Cu  0.0  0.0  0.0 
Cl  -1.7745000000000002  0.9318999999999997  -2.2452 
Cl  -3.0383999999999998  3.5637999999999996  -3.2787 
Cl  -1.4295  6.2316  -3.1279 
Cl  1.3741000000000003  6.242100000000001  -1.7830000000000001 
Cl  2.619300000000001  3.5924999999999994  -0.7503000000000002 
O  0.9202000000000004  1.2736999999999998  -1.0849000000000002 
C  -0.8936999999999999  2.4211  -2.1283000000000003 
C  -1.4447999999999999  3.5828999999999995  -2.5995 
C  -0.7518000000000002  4.7782  -2.5166 
C  0.5171000000000001  4.768599999999999  -1.9376 
C  1.0430000000000001  3.5908999999999995  -1.4677 
C  0.3906999999999998  2.3652999999999995  -1.5382 
19
Ligand ID: unq_CSD-PACTEW-02-a  ===  Stoichiometry: C6H5N4O3  ===  Charge: -1  ===  Donors: N-N
Cu  0.0  0.0  0.0 
O  -3.8091  -0.1266999999999996  -2.648600000000002 
O  -0.8738000000000001  0.02210000000000001  2.8859999999999992 
O  -5.8927  0.027599999999999625  -2.026500000000002 
N  -1.2633  0.03560000000000052  1.6712999999999987 
N  -4.6791  0.002000000000000668  -1.744600000000002 
N  -1.8401  -0.019000000000000128  -0.8224000000000018 
H  -1.9406000000000003  -0.08639999999999937  -1.6942000000000021 
C  -2.8878000000000004  0.07120000000000104  -0.03190000000000026 
N  -3.3982  0.1647999999999996  3.645699999999998 
H  -4.0584  0.21990000000000087  4.2255 
H  -2.5675  0.10790000000000077  3.929199999999998 
C  -2.5924  0.09240000000000137  1.3852999999999973 
C  -3.654  0.16800000000000104  2.3607999999999976 
C  -5.2698  0.22440000000000104  0.5706999999999987 
H  -6.1769  0.2876000000000012  0.296599999999998 
C  -4.2768  0.09700000000000131  -0.4051000000000009 
C  -4.9809  0.2586000000000013  1.8948 
H  -5.6891  0.34660000000000046  2.5224999999999973 
15
Ligand ID: unq_CSD-PABGEF-02-a  ===  Stoichiometry: C7H5O2  ===  Charge: -1  ===  Donors: O-O
Cu  0.0  0.0  0.0 
O  -1.3317999999999999  -1.3358000000000008  0.34579999999999966 
O  -0.27190000000000003  0.42379999999999995  1.8636 
C  -1.6684999999999999  -1.4060000000000006  1.5777999999999999 
C  -1.0761999999999998  -0.3969000000000005  2.4467999999999996 
C  -1.3019999999999998  -0.263300000000001  3.8145 
H  -0.8326999999999998  0.42739999999999867  4.222499999999999 
C  -2.1176999999999997  -0.9977  4.669199999999999 
H  -2.1256999999999997  -0.7081  5.553399999999999 
C  -2.9095999999999997  -2.0824000000000016  4.405600000000001 
H  -3.3834999999999997  -2.431800000000001  5.1262 
C  -3.0841  -2.7105000000000006  3.202799999999999 
H  -3.6437  -3.4536000000000007  3.2216999999999993 
C  -2.5574  -2.4106000000000005  1.9738999999999995 
H  -2.8392999999999997  -2.970600000000001  1.2866 
14
Ligand ID: unq_CSD-OZOVUV-01-a  ===  Stoichiometry: C6H6N  ===  Charge: -1  ===  Donors: N
Cu  0.0  0.0  0.0 
N  1.156699999999999  1.4373000000000005  0.7569999999999997 
C  1.4457000000000004  1.7569999999999997  2.0496 
C  2.5641999999999996  2.5450999999999997  2.3758 
C  2.8324999999999996  2.892900000000001  3.6807000000000016 
C  2.0077  2.491900000000001  4.707799999999999 
C  0.8817000000000004  1.7590000000000003  4.407599999999999 
C  0.6035000000000004  1.4219000000000008  3.116299999999999 
H  1.8327999999999989  1.6128999999999998  0.22489999999999988 
H  3.1738999999999997  2.8941999999999997  1.7506000000000004 
H  3.480699999999999  3.3986  3.747700000000002 
H  2.2637  2.694700000000001  5.533899999999999 
H  0.35769999999999946  1.5212000000000003  5.112200000000001 
H  -0.1208000000000009  0.9708000000000006  2.929000000000002 
11
Ligand ID: unq_CSD-PAGFIQ-01-a  ===  Stoichiometry: C5F4N  ===  Charge: -1  ===  Donors: C
Cu  0.0  0.0  0.0 
C  1.5804999999999998  -1.0238000000000014  -0.03279999999999994 
F  1.8669000000000002  -0.9411000000000005  -2.3724 
N  3.8698000000000006  -2.7387000000000015  -0.04019999999999957 
C  2.261499999999999  -1.394400000000001  -1.1703000000000001 
F  3.9658000000000007  -2.584100000000001  -2.2868999999999997 
C  3.3610999999999995  -2.2288000000000014  -1.1429 
F  3.7649  -2.8923000000000005  2.2041000000000004 
C  3.2520999999999995  -2.3773000000000017  1.0614 
F  1.6345999999999998  -1.3132000000000001  2.3264999999999993 
C  2.1522999999999994  -1.5576000000000008  1.1178 
14
Ligand ID: unq_CSD-PAHMER-01-f  ===  Stoichiometry: C7H5N  ===  Charge: 0  ===  Donors: N
Cu  0.0  0.0  0.0 
N  1.9315000000000002  -0.7756999999999998  0.2616999999999998 
C  2.9214  -1.2778999999999998  0.47129999999999983 
C  4.1442  -1.9343  0.7983999999999996 
C  4.0899  -3.1959  1.3555999999999995 
H  3.2667  -3.6376  1.4603999999999995 
C  5.2743  -3.8011999999999997  1.7568999999999995 
H  5.2631  -4.6640999999999995  2.1287 
C  6.441  -3.1409000000000002  1.6073 
H  7.2361  -3.5421  1.9050999999999996 
C  6.4948  -1.9161  1.0411999999999995 
H  7.3243  -1.4866  0.9363999999999995 
C  5.3484  -1.2927  0.6168999999999998 
H  5.3856  -0.44609999999999994  0.2105999999999999 
28
Ligand ID: unq_CSD-PAHYAY-02-a  ===  Stoichiometry: C15H9O3  ===  Charge: -1  ===  Donors: O-O
Cu  0.0  0.0  0.0 
O  -0.8482000000000003  1.670399999999999  0.42129999999999956 
O  -0.7380999999999993  0.21860000000000035  -1.7545000000000002 
O  -3.1994  3.42  -1.7155999999999998 
C  -1.600200000000001  2.0289  -0.6282000000000001 
C  -1.533100000000001  1.2332  -1.7593 
C  -2.3605  1.5222999999999995  -2.9103 
C  -2.4022000000000006  0.7577999999999996  -4.0489 
C  -3.2338000000000005  1.084999999999999  -5.1022 
C  -4.0993  2.1892999999999994  -4.9504 
C  -4.0677  2.968499999999999  -3.8497 
C  -3.2013  2.6335999999999995  -2.7869 
C  -2.422600000000001  3.1609999999999996  -0.5988000000000002 
C  -2.6131  4.115  0.4469000000000003 
C  -3.5347999999999997  5.181699999999999  0.2779999999999996 
C  -3.7622  6.0618  1.2999999999999998 
C  -3.1039000000000003  5.9681999999999995  2.5079000000000002 
C  -2.1898999999999997  4.9298  2.7072000000000003 
C  -1.9626000000000001  4.0268  1.6776 
H  -1.8188999999999993  -0.0058000000000006935  -4.1324 
H  -3.2330000000000005  0.5601000000000003  -5.923 
H  -4.7374  2.3872  -5.6525 
H  -4.6333  3.7493999999999996  -3.7804 
H  -4.0025  5.2951  -0.5674000000000001 
H  -4.4097  6.7651  1.1746999999999996 
H  -3.2866  6.604999999999999  3.2224000000000004 
H  -1.7142999999999997  4.835699999999999  3.5583 
H  -1.3323  3.3004  1.8094999999999999 
16
Ligand ID: unq_CSD-OZURAE-02-b  ===  Stoichiometry: C6H5N2O2  ===  Charge: -1  ===  Donors: O-O
Cu  0.0  0.0  0.0 
C  -2.679900000000001  2.3652  1.9304999999999999 
C  -3.7417000000000007  3.0921000000000003  1.4318 
H  -3.8374000000000006  3.2334  0.49720000000000003 
C  -4.6687  3.6147  2.3296 
H  -5.408200000000001  4.1182  2.0105999999999997 
C  -4.508500000000001  3.3983  3.6923000000000004 
H  -5.136500000000001  3.7647999999999997  4.3033 
C  -3.440200000000001  2.6531000000000002  4.1686 
H  -3.348700000000001  2.5031  5.1021 
C  -2.504100000000001  2.1226000000000003  3.2903 
H  -1.7673000000000005  1.6120999999999999  3.606 
N  -1.7132000000000005  1.7953999999999999  1.0244 
N  -1.3930000000000007  2.4010000000000002  -0.0484 
O  -1.187800000000001  0.634  1.3682999999999998 
O  -0.5249000000000006  1.7238000000000002  -0.7626999999999999 
13
Ligand ID: unq_CSD-PAJGIT-01-a  ===  Stoichiometry: C5H5NO  ===  Charge: 0  ===  Donors: O
Cu  0.0  0.0  0.0 
O  -0.676400000000001  1.8869999999999996  -0.8584000000000014 
N  -1.930200000000001  1.9087999999999994  -1.3108000000000004 
C  -2.9185  2.2839  -0.4839000000000002 
H  -2.712900000000001  2.5428999999999995  0.4059999999999988 
C  -4.2144  2.2973  -0.9098000000000006 
H  -4.9066  2.5638999999999994  -0.3191000000000006 
C  -4.5132  1.9223  -2.2013 
H  -5.412800000000001  1.9146999999999998  -2.5053 
C  -3.4976000000000003  1.5631999999999993  -3.0387000000000004 
H  -3.6870000000000003  1.3092999999999995  -3.9338000000000006 
C  -2.1927000000000003  1.5699999999999994  -2.5813000000000006 
H  -1.4833999999999996  1.3336999999999994  -3.1674000000000007 
13
Ligand ID: unq_CSD-PAHKAN-01-a  ===  Stoichiometry: C6H4ClO  ===  Charge: -1  ===  Donors: O
Cu  0.0  0.0  0.0 
Cl  -5.0899  -3.2893  3.5846999999999998 
O  -1.5371000000000001  -0.9003000000000001  -0.4482999999999997 
C  -2.2945  -1.4703  0.4941999999999993 
C  -2.2781000000000002  -1.0569000000000002  1.8347999999999995 
H  -1.6844999999999999  -0.3626000000000005  2.0967000000000002 
C  -3.0999  -1.6299000000000001  2.785 
H  -3.0595  -1.3454000000000002  3.690199999999999 
C  -3.9792  -2.622  2.4048999999999996 
C  -4.040900000000001  -3.0547  1.0861999999999998 
H  -4.6561  -3.7318  0.8306000000000004 
C  -3.1957  -2.4829  0.14749999999999908 
H  -3.2284  -2.7872  -0.7513000000000005 
18
Ligand ID: unq_CSD-PACVAU-02-a  ===  Stoichiometry: C6H3N4O4  ===  Charge: -1  ===  Donors: O-N
Cu  0.0  0.0  0.0 
O  0.34330000000000016  0.9563000000000006  -1.847599999999999 
N  -1.162  1.5835000000000008  0.4643000000000015 
O  0.2503000000000002  2.4368  -3.407799999999999 
N  -0.11539999999999973  2.0874000000000006  -2.2714999999999996 
O  -1.7008999999999999  5.847000000000001  -3.4888999999999992 
O  -3.0725  7.1015000000000015  -2.1831999999999994 
N  -2.4238  6.0564  -2.282099999999999 
N  -1.0362  4.6137000000000015  -3.408899999999999 
C  -1.4609999999999999  2.6388  -0.23579999999999934 
C  -2.3493999999999997  3.6234  0.37370000000000125 
H  -2.6879  3.4413  1.2428000000000008 
C  -0.9520999999999997  2.896700000000001  -1.5751999999999988 
C  -2.7144  4.764800000000001  -0.2140999999999984 
H  -3.2885999999999997  5.3841  0.22080000000000055 
C  -2.2115  5.0146000000000015  -1.5155999999999992 
C  -1.3496  4.1294  -2.2116999999999996 
H  -1.5332  1.5908999999999995  1.1605000000000008 
23
Ligand ID: unq_CSD-PAXSEP-02-a  ===  Stoichiometry: C10H8N2O2  ===  Charge: 0  ===  Donors: N-N
Cu  0.0  0.0  0.0 
H  0.7945999999999991  -3.8866999999999994  1.1312999999999995 
O  0.6681000000000008  -3.0436999999999994  0.9288999999999996 
N  1.5535999999999994  -1.359399999999999  -0.2966000000000002 
C  1.6219999999999999  -2.6454999999999993  0.09479999999999977 
H  0.6835000000000004  3.9282000000000004  0.2784 
O  0.6679999999999993  3.1151  0.20419999999999972 
N  1.5734999999999992  1.2324000000000002  -0.6012 
C  2.632199999999999  -3.501899999999999  -0.3452000000000002 
H  2.6682000000000006  -4.398999999999999  -0.03710000000000013 
C  3.5686999999999998  -3.0348999999999995  -1.2231 
H  4.2332  -3.6179999999999994  -1.5737 
C  3.5397  -1.6988999999999992  -1.5981 
H  4.1859  -1.3545999999999996  -2.2032 
C  2.5678  -0.8797999999999995  -1.0836000000000001 
C  2.5778  0.5830000000000002  -1.2509000000000001 
C  3.5854  1.2683  -1.9097000000000002 
H  4.245900000000001  0.7972000000000001  -2.4036 
C  3.6125000000000007  2.6530000000000005  -1.8363 
H  4.2955000000000005  3.1403  -2.2818 
C  2.6569000000000003  3.312000000000001  -1.1225 
H  2.6819000000000006  4.2584  -1.0403000000000002 
C  1.6384000000000007  2.5738000000000003  -0.5139 
13
Ligand ID: unq_CSD-PAZTIW-01-b  ===  Stoichiometry: C5H5NO  ===  Charge: 0  ===  Donors: O
Cu  0.0  0.0  0.0 
O  2.1388000000000007  0.23329999999999984  -0.5408 
N  5.3366  1.5405999999999995  -2.5936000000000003 
H  6.0363999999999995  1.8055000000000003  -3.0569 
C  3.1474  0.6707999999999998  -1.1744000000000003 
C  3.0195999999999996  1.3765  -2.3923 
H  2.1549000000000005  1.5652999999999997  -2.7383 
C  4.1139  1.7854999999999999  -3.0687 
H  4.012300000000001  2.2522  -3.8897000000000004 
C  5.529800000000001  0.9032  -1.4305000000000003 
H  6.4159  0.7603  -1.1177000000000001 
C  4.472700000000001  0.4557000000000002  -0.6916000000000002 
H  4.617500000000001  0.006299999999999972  0.13339999999999996 
25
Ligand ID: unq_CSD-PABSEQ-01-b  ===  Stoichiometry: C12H9N3  ===  Charge: 0  ===  Donors: N
Cu  0.0  0.0  0.0 
N  -0.6934000000000005  -0.9185000000000001  1.7262999999999984 
N  -1.0277000000000003  -1.4619  3.826399999999998 
N  1.4414999999999996  0.7828999999999999  2.4273999999999987 
C  -0.29110000000000014  -0.7402  2.986399999999998 
C  -1.7506000000000004  -1.8178  1.7787999999999986 
C  -2.5620000000000003  -2.3378  0.7812999999999999 
C  -3.5575000000000006  -3.2069  1.1518999999999995 
C  -3.7727000000000004  -3.52  2.4891999999999985 
C  -3.0073000000000003  -3.0235000000000003  3.4990000000000006 
C  -1.9796000000000005  -2.1577  3.106799999999998 
C  0.8346  0.11219999999999986  3.4002 
C  2.4833999999999996  1.5598999999999998  2.7639999999999976 
C  2.9448999999999987  1.6728999999999998  4.076499999999998 
C  2.3072999999999997  0.9502999999999999  5.0524000000000004 
C  1.2394999999999996  0.17579999999999996  4.7158 
H  -0.9169  -1.4837  4.774499999999998 
H  -2.4462  -2.1016000000000004  -0.12970000000000148 
H  -4.2113000000000005  -3.6004  0.3550999999999984 
H  -4.5280000000000005  -4.1346  2.7361999999999984 
H  -3.1897  -3.33  4.527399999999998 
H  2.9232999999999993  2.0648  2.0877 
H  3.694699999999999  2.2448  4.2772999999999985 
H  2.5985999999999994  0.9979999999999998  5.954199999999998 
H  0.7547999999999995  -0.4086000000000001  5.373599999999998 
18
Ligand ID: unq_CSD-PAMDUE-01-c  ===  Stoichiometry: C7H7NO2  ===  Charge: 0  ===  Donors: N
Cu  0.0  0.0  0.0 
N  -0.21499999999999986  2.1372  0.39429999999999943 
H  -0.8041999999999998  2.2281999999999997  1.0687999999999995 
H  0.5778999999999996  2.4360000000000004  0.6959999999999997 
O  -1.0930999999999997  6.167300000000001  -4.496700000000001 
O  -3.1417  5.299300000000001  -4.289300000000001 
H  -3.2764  5.707599999999999  -4.987 
C  0.2850999999999999  3.7319  -1.3825000000000003 
H  1.1886999999999999  3.6818000000000004  -1.1692999999999998 
C  -0.6303000000000001  3.0126000000000004  -0.6544000000000008 
C  -1.4870999999999999  4.590199999999999  -2.766300000000001 
C  -1.9991000000000003  3.1125000000000003  -0.9619 
H  -2.6266  2.6531  -0.4512999999999998 
C  -0.13269999999999982  4.5312  -2.434100000000001 
H  0.48829999999999973  5.027900000000001  -2.917200000000001 
C  -1.9070999999999998  5.441000000000001  -3.9398 
C  -2.4049000000000005  3.8960000000000004  -2.0236 
H  -3.3088  3.9529  -2.2354000000000003 
15
Ligand ID: unq_CSD-PAMJIZ-01-a  ===  Stoichiometry: C6H4NO3  ===  Charge: -1  ===  Donors: O
Cu  0.0  0.0  0.0 
C  2.2940000000000005  -1.4124  -0.9144000000000005 
C  2.844899999999999  -2.6463  -1.3172000000000006 
H  2.4068000000000005  -3.4542  -1.078100000000001 
C  4.008999999999999  -2.697  -2.0539000000000005 
H  4.3641999999999985  -3.5322  -2.3363000000000005 
C  4.658499999999998  -1.5121  -2.3787000000000003 
C  4.149800000000001  -0.2806000000000002  -1.976 
H  4.6114000000000015  0.5215999999999998  -2.1916 
C  2.9778000000000002  -0.2355999999999998  -1.2653999999999996 
H  2.621600000000001  0.6067999999999998  -1.0047999999999995 
N  5.911199999999999  -1.5554999999999999  -3.1049000000000007 
O  1.1707999999999998  -1.4225  -0.21359999999999957 
O  6.318199999999999  -2.6528  -3.4893 
O  6.526200000000001  -0.5186000000000002  -3.2965 
12
Ligand ID: unq_CSD-PAGGOX-01-a  ===  Stoichiometry: C6F5  ===  Charge: -1  ===  Donors: C
Cu  0.0  0.0  0.0 
C  -1.6498999999999988  1.0267999999999997  0.012299999999999756 
C  -2.249599999999999  1.3286999999999995  -1.2054 
C  -3.383099999999999  2.1301000000000005  -1.2418000000000005 
C  -3.9179999999999993  2.631500000000001  -0.06040000000000045 
C  -3.3194  2.3314000000000004  1.1572999999999993 
C  -2.1837999999999997  1.5281000000000002  1.1936999999999998 
F  -1.658199999999999  1.2913999999999994  2.3296 
F  -1.8141999999999996  0.8907000000000007  -2.3541000000000003 
F  -3.994999999999999  2.4468999999999994  -2.3936 
F  -3.806099999999999  2.8383000000000003  2.2704999999999993 
F  -4.992999999999999  3.4496  -0.0763000000000007 
12
Ligand ID: unq_CSD-PAGGEN-01-c  ===  Stoichiometry: C6HF4  ===  Charge: -1  ===  Donors: C
Cu  0.0  0.0  0.0 
C  -1.6135000000000002  -0.9957999999999991  -0.015499999999999403 
C  -2.2079000000000004  -1.491999999999999  -1.1502 
F  -1.6550999999999991  -1.225999999999999  -2.3554000000000013 
F  -3.8735  -2.742799999999999  -2.2894000000000005 
C  -3.3733000000000004  -2.2805999999999997  -1.1274000000000015 
C  -3.9733  -2.6034999999999986  0.05799999999999983 
H  -4.7547  -3.1430999999999996  0.0840999999999994 
F  -3.976099999999999  -2.434899999999999  2.4019999999999975 
C  -3.4116  -2.1252999999999993  1.198599999999999 
F  -1.8203999999999994  -0.8971999999999998  2.3477999999999994 
C  -2.289299999999999  -1.3348999999999993  1.1707999999999998 
13
Ligand ID: unq_CSD-OZOWAC-01-a  ===  Stoichiometry: C6H5O  ===  Charge: -1  ===  Donors: O
Cu  0.0  0.0  0.0 
O  -0.03190000000000004  -0.28530000000000033  1.9933000000000014 
C  0.5897  -1.2734  2.616200000000001 
C  1.3272  -2.2928  1.9747000000000003 
C  1.9304999999999999  -3.2968  2.7074000000000016 
C  1.8413999999999997  -3.3281  4.100000000000001 
C  1.0856  -2.3288  4.742800000000001 
C  0.4899999999999999  -1.3336999999999999  4.0045 
H  1.3925999999999998  -2.255  1.0696000000000012 
H  2.4762999999999997  -4.0919  2.352500000000001 
H  2.0949  -4.0854  4.604500000000002 
H  1.0943999999999998  -2.3135  5.687800000000001 
H  0.11249999999999993  -0.7423000000000002  4.362200000000001 
20
Ligand ID: unq_CSD-PAKVOP-01-b  ===  Stoichiometry: C10H8N  ===  Charge: -1  ===  Donors: N
Cu  0.0  0.0  0.0 
N  1.8807999999999998  0.22970000000000113  -0.33470000000000066 
C  2.9581999999999997  0.7706999999999997  0.2889999999999997 
C  3.0189  0.7910000000000004  1.6766999999999999 
H  2.2866  0.4442000000000004  2.1697999999999995 
C  4.1112  1.2990000000000013  2.3713999999999995 
H  4.1042  1.2894000000000005  3.3225 
C  5.1981  1.8123000000000005  1.7159999999999997 
H  5.9344  2.1601999999999997  2.2047 
C  5.2105  1.816600000000001  0.3032999999999997 
C  6.2949  2.3694000000000006  -0.41630000000000056 
H  7.0357  2.7279999999999998  0.058099999999999596 
C  6.2972  2.3971  -1.7671000000000001 
H  7.037800000000001  2.7749000000000006  -2.2250000000000005 
C  5.2262  1.8773999999999997  -2.5054000000000007 
H  5.2378  1.8924000000000003  -3.4539 
C  4.1552999999999995  1.3449000000000009  -1.8240000000000007 
H  3.42  1.0023  -2.3203000000000005 
C  4.1043  1.2873  -0.41690000000000005 
H  1.9730999999999999  0.11650000000000027  -1.0977000000000006 
18
Ligand ID: unq_CSD-PACTUM-02-a  ===  Stoichiometry: C6H3N4O4  ===  Charge: -1  ===  Donors: O-N
Cu  0.0  0.0  0.0 
O  -1.8817000000000004  0.7798999999999996  -0.5941999999999998 
O  -3.4400000000000004  2.2615999999999996  -0.7468999999999997 
O  -0.12919999999999998  0.5609000000000002  4.7596 
N  -2.6021  1.6804000000000006  -0.026899999999999924 
O  -1.5652000000000004  2.0596999999999994  5.7561 
N  -0.5884999999999998  0.5305  1.8666 
N  -1.0571000000000002  1.3528000000000002  4.6036 
C  -1.5699  1.3359000000000005  2.1864 
N  -2.5967000000000002  2.8796999999999997  5.3308 
C  -2.5129  1.9803999999999995  1.3178999999999998 
C  -2.7012  2.6949000000000005  4.0316 
C  -1.7607000000000004  1.7431999999999999  3.5667999999999997 
C  -3.5918  3.3016000000000005  3.1018 
H  -4.2437000000000005  3.9344  3.3796 
C  -3.4692000000000003  2.9380000000000006  1.8148999999999997 
H  -4.0563  3.3409999999999993  1.1863000000000001 
H  -0.1416000000000004  0.2911999999999999  2.5606999999999998 
