5
Ligand ID: unq_CSD-PACXAV-01-a  ===  Stoichiometry: H3N  ===  Charge: 0  ===  Donors: N
Cu  0.0  0.0  0.0 
N  1.4623  1.4289  -0.047699999999999965 
H  1.0882  2.2356  -0.07920000000000005 
H  1.969  1.3605  0.6785 
H  1.9678  1.3097000000000003  -0.7745 
8
Ligand ID: unq_CSD-OZUZIT-01-a  ===  Stoichiometry: C2H5  ===  Charge: -1  ===  Donors: C
Cu  0.0  0.0  0.0 
C  0.226700000000001  -0.9065000000000001  1.7146000000000008 
H  0.5851000000000006  -0.2549000000000001  2.338700000000001 
H  -0.6572999999999993  -1.1436000000000002  2.033100000000001 
C  1.0381999999999998  -2.072  1.8109000000000002 
H  0.7735000000000003  -2.7023  1.1367000000000012 
H  0.9280000000000008  -2.4671000000000003  2.6791 
H  1.9591000000000012  -1.8332000000000002  1.682500000000001 
4
Ligand ID: unq_CSD-PALKET-01-a  ===  Stoichiometry: CNO  ===  Charge: -1  ===  Donors: N
Cu  0.0  0.0  0.0 
O  1.8444000000000003  2.801100000000001  -2.9044999999999987 
N  0.9097  1.3545000000000007  -1.3032000000000004 
C  1.3712  2.0686  -2.0922 
4
Ligand ID: unq_CSD-PAFWIF-01-b  ===  Stoichiometry: N3  ===  Charge: -1  ===  Donors: N
Cu  0.0  0.0  0.0 
N  1.4777  1.2372999999999994  -0.7157 
N  1.1927  2.199  -1.1711999999999998 
N  0.9537  3.220700000000001  -1.6050000000000004 
10
Ligand ID: unq_CSD-OZUBIV-01-a  ===  Stoichiometry: C2H6O  ===  Charge: 0  ===  Donors: O
Cu  0.0  0.0  0.0 
O  0.15059999999999985  -2.2776999999999994  -0.36929999999999996 
H  -0.6303000000000001  -2.1449999999999996  -0.15439999999999987 
C  0.7172999999999998  -3.227499999999999  0.4918 
H  1.4633000000000003  -2.8178  0.9569000000000001 
H  1.0670000000000002  -3.9597999999999995  -0.03929999999999989 
C  -0.22119999999999962  -3.7767999999999997  1.4957000000000003 
H  0.24350000000000005  -4.3947  2.0637 
H  -0.9392000000000005  -4.227600000000001  1.0475000000000003 
H  -0.5769000000000002  -3.0603999999999996  2.0268000000000006 
9
Ligand ID: unq_CSD-PAXDOI-01-b  ===  Stoichiometry: C2H5O  ===  Charge: -1  ===  Donors: C
Cu  0.0  0.0  0.0 
O  -1.5547000000000004  1.3016000000000005  2.2171999999999996 
C  -0.23970000000000002  1.2536000000000005  1.65 
H  0.4001000000000001  0.9944000000000006  2.3242 
H  0.04750000000000032  2.1571  1.3444999999999996 
C  -1.6653000000000002  2.2723999999999993  3.2395 
H  -0.9466999999999999  2.1424000000000003  3.8917999999999995 
H  -2.533  2.1784999999999997  3.6855999999999995 
H  -1.5937000000000001  3.1682000000000006  2.8489 
5
Ligand ID: unq_CSD-OZOJUJ-01-b  ===  Stoichiometry: CH3  ===  Charge: -1  ===  Donors: C
Cu  0.0  0.0  0.0 
C  1.8861  -0.7906  0.12899999999999956 
H  1.8658  -1.5925  0.6929999999999996 
H  2.4915000000000003  -0.12849999999999984  0.5234999999999994 
H  2.2013999999999996  -1.0302  -0.7666000000000004 
3
Ligand ID: unq_CSD-PAKVEF-01-a  ===  Stoichiometry: N2  ===  Charge: 0  ===  Donors: N
Cu  0.0  0.0  0.0 
N  -0.15379999999999994  -1.0242000000000004  1.4608000000000003 
N  -0.2599  -1.8655  2.19 
8
Ligand ID: unq_CSD-PAXQUA-01-a  ===  Stoichiometry: CH5N  ===  Charge: 0  ===  Donors: N
Cu  0.0  0.0  0.0 
N  1.4889  -1.2375  0.6999 
C  1.0497  -2.2397  1.69 
H  1.8563  -1.6685  0.0015 
H  2.1319  -0.7297  1.0733 
H  1.816  -2.6941  2.0483 
H  0.4703  -2.876  1.2653 
H  0.5767  -1.8011  2.402 
5
Ligand ID: unq_CSD-OZUZUG-01-a  ===  Stoichiometry: NO3  ===  Charge: -1  ===  Donors: O
Cu  0.0  0.0  0.0 
O  -1.7279  1.6585999999999999  0.17349999999999977 
O  -2.1799999999999997  3.6645000000000003  0.8338999999999999 
O  -0.2755000000000001  3.264400000000002  -0.08720000000000017 
N  -1.3881999999999999  2.9010999999999996  0.31259999999999977 
7
Ligand ID: unq_CSD-OZUBAN-01-a  ===  Stoichiometry: CH4O  ===  Charge: 0  ===  Donors: O
Cu  0.0  0.0  0.0 
C  2.7775999999999996  1.6266999999999996  0.5794000000000001 
H  3.5573999999999995  1.6534999999999993  1.1374 
H  2.3282  2.473699999999999  0.6151 
H  3.0388  1.4402999999999988  -0.32509999999999994 
O  1.9725000000000001  0.6910999999999987  1.0006 
H  1.7424  0.2225999999999999  0.3679000000000001 
7
Ligand ID: unq_CSD-PARTEH-01-b  ===  Stoichiometry: C2H3O  ===  Charge: -1  ===  Donors: C
Cu  0.0  0.0  0.0 
C  -1.6255  0.3642  1.024700000000001 
C  -2.8333  0.6752  0.1994000000000007 
O  -1.6747  0.3503  2.2277000000000005 
H  -2.5958  0.6427  -0.7659000000000002 
H  -3.5492  0.003699999999999981  0.3963000000000001 
H  -3.1693  1.5897000000000001  0.43539999999999957 
103
Ligand ID: unq_CSD-PADCOO-04-a  ===  Stoichiometry: C42H56N4  ===  Charge: 0  ===  Donors: N-N-N-N
Cu  0.0  0.0  0.0 
N  0.5110000000000001  1.1482  1.6587 
N  -1.7034000000000002  -0.41440000000000055  1.0225 
C  -1.1963  -2.7495000000000003  1.8074 
H  -0.2823000000000002  -2.5631000000000004  1.5072 
H  -1.4127  -3.6889000000000003  1.6347 
H  -1.2667000000000002  -2.5693  2.7686 
C  -2.1753  -1.8529  1.0483 
H  -3.0502000000000002  -1.8788  1.5321 
C  -1.6727000000000003  0.22609999999999975  2.3955 
H  -1.2432000000000003  -0.40779999999999994  3.0392 
C  -0.8204000000000002  1.4831999999999992  2.2978 
H  -1.2912  2.085  1.6518 
C  -0.7717999999999998  2.251499999999999  3.6349 
H  -0.31510000000000016  1.7031999999999998  4.3193 
H  -0.2591000000000001  3.0917000000000003  3.5183 
C  -2.1956  2.5753999999999992  4.0953 
H  -2.1625  3.0474000000000006  4.9648 
H  -2.629  3.1757  3.4374 
C  -3.0182  1.2953000000000001  4.24 
H  -2.6015  0.7056999999999993  4.9166 
H  -3.9326  1.518299999999999  4.5464 
C  -3.0888  0.5682  2.9008 
H  -3.5478  1.142599999999999  2.2367 
H  -3.6141  -0.2643000000000004  3.0035 
C  1.1726999999999999  2.4379  1.2599 
H  1.4173999999999998  2.9281999999999995  2.0842 
H  0.5096999999999996  2.989299999999999  0.7746 
C  2.4238  2.3142000000000005  0.3888 
H  2.8754999999999997  3.194  0.3624 
H  3.0439999999999996  1.6741000000000001  0.8212 
C  1.4401000000000002  0.2397999999999998  2.47 
H  0.9771000000000001  -0.6263000000000005  2.5944 
H  2.2424  0.06259999999999977  1.9178 
C  1.9208999999999996  0.7041999999999993  3.8418 
C  2.7965999999999998  1.7535999999999996  3.9445 
H  3.1178  2.1552999999999995  3.1466 
C  3.2461  2.265299999999999  5.1888 
H  3.8297000000000008  3.0138000000000007  5.2121 
C  2.8400999999999996  1.6818  6.3476 
H  3.1219  2.0407  7.1812 
C  1.9953000000000003  0.5346000000000002  6.318 
C  1.6082  -0.14660000000000029  7.5265 
H  1.9004000000000003  0.19090000000000007  8.3633 
C  0.8369999999999997  -1.2587000000000002  7.4939 
H  0.6085000000000003  -1.7016  8.3042 
C  0.37380000000000013  -1.7597000000000005  6.2651 
H  -0.1745000000000001  -2.5356000000000005  6.2496 
C  0.7059999999999995  -1.1395  5.0846 
H  0.38649999999999984  -1.5  4.2664 
C  1.5091  0.021399999999999864  5.0581 
H  -2.2675  0.09169999999999945  0.5599 
N  -0.5110000000000001  -1.1482  -1.6587 
N  1.7034000000000002  0.41439999999999966  -1.0225 
C  1.1963  2.7495000000000003  -1.8074 
H  0.2823000000000002  2.5630999999999995  -1.5072 
H  1.4127  3.6888999999999994  -1.6347 
H  1.2667000000000002  2.5692999999999993  -2.7686 
C  2.1753  1.852899999999999  -1.0483 
H  3.0502000000000002  1.8787999999999991  -1.5321 
C  1.6726999999999999  -0.22609999999999975  -2.3955 
H  1.2431999999999999  0.40779999999999905  -3.0392 
C  0.8204000000000002  -1.4832  -2.2978 
H  1.2912  -2.085  -1.6518 
C  0.7717999999999998  -2.2515  -3.6349 
H  0.31510000000000016  -1.7031999999999998  -4.3193 
H  0.2591000000000001  -3.0917000000000003  -3.5183 
C  2.1955999999999998  -2.5754  -4.0953 
H  2.1624999999999996  -3.0474000000000006  -4.9648 
H  2.6289999999999996  -3.1757  -3.4374 
C  3.0182  -1.2953000000000001  -4.24 
H  2.6014999999999997  -0.7057000000000002  -4.9166 
H  3.9326000000000008  -1.5183  -4.5464 
C  3.0888  -0.5682  -2.9008 
H  3.5478000000000005  -1.1425999999999998  -2.2367 
H  3.6141000000000005  0.26429999999999954  -3.0035 
C  -1.1727000000000003  -2.4379  -1.2599 
H  -1.4174000000000002  -2.9282000000000004  -2.0842 
H  -0.5097000000000005  -2.9893  -0.7746 
C  -2.4238  -2.3142000000000005  -0.3888 
H  -2.8755  -3.194  -0.3624 
H  -3.044  -1.6741000000000001  -0.8212 
C  -1.4401000000000002  -0.2397999999999998  -2.47 
H  -0.9771000000000001  0.6262999999999996  -2.5944 
H  -2.2424  -0.06259999999999977  -1.9178 
C  -1.9209  -0.7042000000000002  -3.8418 
C  -2.7966  -1.7536000000000005  -3.9445 
H  -3.1178  -2.1553000000000004  -3.1466 
C  -3.2461  -2.2653  -5.1888 
H  -3.8297  -3.0138  -5.2121 
C  -2.8401  -1.6818  -6.3476 
H  -3.1219  -2.0407  -7.1812 
C  -1.9953000000000003  -0.5346000000000002  -6.318 
C  -1.6082  0.1465999999999994  -7.5265 
H  -1.9004000000000003  -0.19090000000000007  -8.3633 
C  -0.8370000000000002  1.2587000000000002  -7.4939 
H  -0.6085000000000003  1.7016  -8.3042 
C  -0.37380000000000013  1.7596999999999996  -6.2651 
H  0.1745000000000001  2.5355999999999996  -6.2496 
C  -0.7060000000000004  1.139499999999999  -5.0846 
H  -0.38649999999999984  1.4999999999999991  -4.2664 
C  -1.5091  -0.021399999999999864  -5.0581 
H  2.2675  -0.09170000000000034  -0.5599 
3
Ligand ID: unq_CSD-PACCOL-01-a  ===  Stoichiometry: CN  ===  Charge: -1  ===  Donors: C
Cu  0.0  0.0  0.0 
N  -1.9406  -1.6024000000000003  1.6516000000000002 
C  -1.1976  -0.9979  1.0203000000000007 
10
Ligand ID: unq_CSD-PAGBEE-01-b  ===  Stoichiometry: C3H4N2  ===  Charge: 0  ===  Donors: N
Cu  0.0  0.0  0.0 
N  1.7388  0.2059  1.2046 
N  3.0987  0.8179  2.8096 
C  1.8577  0.8638  2.3345 
C  3.8303  0.0833  1.9393 
C  2.9895  -0.2996  0.9617 
H  1.142  1.3178  2.7624 
H  3.4118  1.2251  3.6091 
H  4.7557  -0.1211  2.0048 
H  3.2267  -0.8387  0.217 
10
Ligand ID: unq_CSD-PADDUU-01-a  ===  Stoichiometry: C2H6N  ===  Charge: -1  ===  Donors: N
Cu  0.0  0.0  0.0 
N  0.33260000000000023  -1.5368000000000004  -1.2963000000000005 
C  0.6323999999999996  -1.3923999999999994  -2.706999999999999 
H  1.5041000000000002  -1.7991000000000001  -2.8979999999999997 
H  0.6585999999999999  -0.44090000000000007  -2.940299999999999 
H  -0.05970000000000031  -1.8396  -3.235999999999999 
C  0.2859999999999996  -2.9650000000000007  -0.9619999999999997 
H  -0.4059999999999997  -3.4038999999999993  -1.5001999999999995 
H  0.07559999999999967  -3.0707999999999993  -0.010500000000000398 
H  1.1551  -3.3736000000000006  -1.1511999999999993 
9
Ligand ID: unq_CSD-PAHNAR-01-a  ===  Stoichiometry: C2H4O2  ===  Charge: 0  ===  Donors: O
Cu  0.0  0.0  0.0 
O  -1.8931999999999998  -0.009100000000000108  -1.6000999999999994 
O  -2.573  1.8983000000000008  -2.5168 
H  -3.0410999999999997  1.929999999999998  -1.8449 
C  -1.8725999999999998  0.7904  -2.5085999999999995 
C  -1.0181999999999998  0.6379000000000001  -3.7193999999999994 
H  -0.3443999999999998  -0.02490000000000059  -3.5547999999999997 
H  -0.5982999999999998  1.4779999999999998  -3.9211999999999994 
H  -1.5615999999999999  0.3658000000000001  -4.462299999999999 
6
Ligand ID: unq_CSD-PAKJUI-01-a  ===  Stoichiometry: ClO4  ===  Charge: -1  ===  Donors: O
Cu  0.0  0.0  0.0 
Cl  -1.1665999999999999  -1.9641000000000002  -3.0915 
O  -1.5302999999999995  -2.9117000000000006  -2.0465 
O  -2.2607  -1.8321000000000005  -3.9884 
O  -0.9090999999999996  -0.7218  -2.4788 
O  -0.05739999999999945  -2.4547000000000008  -3.7815 
6
Ligand ID: unq_CSD-PAYHUU-01-e  ===  Stoichiometry: C2N3  ===  Charge: -1  ===  Donors: N
Cu  0.0  0.0  0.0 
N  1.7530999999999999  -1.0442999999999998  -0.35360000000000014 
C  2.846  -1.2767999999999997  -0.6476000000000006 
N  4.0756  -1.6380999999999997  -0.8946000000000005 
C  4.664499999999999  -1.1136  -1.9568000000000003 
N  5.255399999999999  -0.7419999999999991  -2.8754999999999997 
9
Ligand ID: unq_CSD-PAFJAH-01-b  ===  Stoichiometry: C2H5O  ===  Charge: -1  ===  Donors: O
Cu  0.0  0.0  0.0 
O  0.3369  0.5467  -1.7824 
C  0.8162000000000003  0.16059999999999997  -3.0380000000000003 
C  0.6960000000000002  1.0739  -4.0564 
H  0.3368000000000002  -0.6288  -3.2975 
H  1.7491000000000003  -0.04730000000000001  -2.9444 
H  1.0522999999999998  0.7004999999999999  -4.8639 
H  1.1801000000000004  1.871  -3.8288 
H  -0.23170000000000002  1.2895  -4.1853 
7
Ligand ID: unq_CSD-PAFKOY-01-a  ===  Stoichiometry: C2H3N  ===  Charge: 0  ===  Donors: C
Cu  0.0  0.0  0.0 
N  -0.5288999999999997  -3.7537000000000003  0.2981999999999978 
C  -0.28359999999999985  -2.658  0.10389999999999944 
C  -0.8347  -5.1237  0.6097999999999999 
H  -0.15510000000000002  -5.7076  0.21369999999999933 
H  -1.7143  -5.3524  0.24540000000000006 
H  -0.8419999999999999  -5.2432  1.5829999999999984 
10
Ligand ID: unq_CSD-PAWQIO-01-a  ===  Stoichiometry: C3H5O  ===  Charge: -1  ===  Donors: C
Cu  0.0  0.0  0.0 
O  -0.41110000000000113  -2.0968999999999998  -3.1706000000000003 
C  -0.6592000000000002  -0.06989999999999874  -1.982099999999999 
H  -1.6207000000000011  -0.3069999999999986  -1.9872999999999994 
H  -0.5728000000000009  0.8345000000000002  -2.3766 
C  0.06620000000000026  -1.0276999999999994  -2.836499999999999 
C  1.4344999999999999  -0.6120999999999999  -3.3057 
H  1.7683999999999997  -1.450099999999999  -3.2278000000000002 
H  1.3095999999999997  -0.3155000000000001  -4.153499999999999 
H  1.9894999999999996  -0.1144999999999996  -2.7807999999999993 
2
Ligand ID: unq_CSD-OZOCEO-01-a  ===  Stoichiometry: H  ===  Charge: -1  ===  Donors: H
Cu  0.0  0.0  0.0 
H  -0.5762999999999998  0.33919999999999995  -1.2542 
6
Ligand ID: unq_CSD-OZUTEL-01-a  ===  Stoichiometry: CH3O  ===  Charge: -1  ===  Donors: O
Cu  0.0  0.0  0.0 
O  -0.5313999999999979  1.0387999999999997  1.4074999999999989 
C  -1.2258999999999993  1.0192999999999999  2.6022 
H  -2.1084999999999994  1.4255999999999998  2.473799999999999 
H  -0.7284000000000006  1.5261999999999998  3.2776999999999994 
H  -1.3333999999999975  0.0928  2.902799999999999 
5
Ligand ID: unq_CSD-OZOLEW-02-b  ===  Stoichiometry: NO3  ===  Charge: -1  ===  Donors: O-O
Cu  0.0  0.0  0.0 
O  -1.3457  -0.4573999999999998  1.8354999999999997 
O  0.135  1.1036000000000001  1.9471999999999996 
O  -1.0583  0.6257999999999999  3.719599999999999 
N  -0.768  0.4319000000000002  2.5429000000000004 
2
Ligand ID: unq_CSD-OZODUD-01-a  ===  Stoichiometry: I  ===  Charge: -1  ===  Donors: I
Cu  0.0  0.0  0.0 
I  2.4468  1.6701000000000006  -0.08729999999999993 
7
Ligand ID: unq_CSD-PABJIP-02-a  ===  Stoichiometry: C2H4  ===  Charge: 0  ===  Donors: C-C
Cu  0.0  0.0  0.0 
C  -0.5015999999999998  -1.0969  1.8392999999999988 
H  0.1897000000000002  -1.719  2.181 
H  -0.9468999999999994  -0.577  2.553399999999999 
C  -1.3265999999999996  -1.5856  0.8167999999999997 
H  -2.2892999999999994  -1.3669  0.8831999999999995 
H  -1.1510999999999996  -2.5107  0.5108999999999995 
2
Ligand ID: unq_CSD-OZUJID-01-a  ===  Stoichiometry: Br  ===  Charge: -1  ===  Donors: Br
Cu  0.0  0.0  0.0 
Br  -2.0862  0.0204  1.3382999999999998 
9
Ligand ID: unq_CSD-PACBEB-01-d  ===  Stoichiometry: C3F5  ===  Charge: -1  ===  Donors: C
Cu  0.0  0.0  0.0 
F  0.7348000000000001  -1.7812999999999999  2.3275000000000006 
F  2.3976  1.279300000000001  1.7057000000000002 
F  4.0594  -0.3851999999999993  3.1983000000000006 
F  2.3772  -1.2985000000000007  4.154700000000001 
F  2.714  0.8071999999999999  4.3197 
C  1.0382  -0.5582999999999991  1.6518000000000006 
C  1.9919000000000002  0.051000000000000156  2.2970000000000006 
C  2.7835  -0.18599999999999994  3.5019 
4
Ligand ID: unq_CSD-OZONIB-01-a  ===  Stoichiometry: H2O  ===  Charge: 0  ===  Donors: O
Cu  0.0  0.0  0.0 
O  1.5107999999999997  1.274799999999999  0.39209999999999967 
H  2.2280000000000015  1.2079000000000004  0.04179999999999984 
H  1.5412  1.7492  1.0286999999999997 
3
Ligand ID: unq_CSD-PAYGIF-01-a  ===  Stoichiometry: HO  ===  Charge: -1  ===  Donors: O
Cu  0.0  0.0  0.0 
O  0.22100000000000009  -1.141  -1.615400000000001 
H  0.7599999999999998  -0.7908999999999997  -2.1244000000000014 
9
Ligand ID: unq_CSD-PATGEW-01-a  ===  Stoichiometry: C2H4N2  ===  Charge: 0  ===  Donors: N
Cu  0.0  0.0  0.0 
N  -0.9613000000000014  2.2008  -0.6521000000000008 
N  -2.3125  4.3458000000000006  -2.1605000000000008 
C  -0.2697000000000003  3.1895  -1.4114000000000004 
C  -1.0425000000000004  4.4936  -1.6744000000000003 
H  0.00429999999999886  2.7902000000000005  -2.2811000000000003 
H  0.583499999999999  3.4101  -0.9432 
H  -1.0573000000000015  4.9806  -0.8522000000000007 
H  -0.5302000000000007  5.0044  -2.3452 
2
Ligand ID: unq_CSD-PAGFIQ-01-b  ===  Stoichiometry: F  ===  Charge: -1  ===  Donors: F
Cu  0.0  0.0  0.0 
F  -1.5901000000000005  0.9619999999999997  0.04470000000000063 
7
Ligand ID: unq_CSD-PAFCIJ-01-b  ===  Stoichiometry: C2H3N  ===  Charge: 0  ===  Donors: N
Cu  0.0  0.0  0.0 
N  -2.0105999999999997  0.11529999999999996  0.3854999999999995 
C  -3.1150999999999995  0.10030000000000028  0.6735999999999995 
C  -4.5227  0.07170000000000032  1.0629 
H  -4.9831  0.8428  0.6066000000000003 
H  -4.7003  -0.1503000000000001  2.0469999999999997 
H  -4.9984  -0.6393  0.5378999999999996 
2
Ligand ID: unq_CSD-OZOCUD-01-a  ===  Stoichiometry: Cl  ===  Charge: -1  ===  Donors: Cl
Cu  0.0  0.0  0.0 
Cl  -2.0484  1.0542000000000007  0.33369999999999944 
3
Ligand ID: unq_CSD-OZOBAJ-01-a  ===  Stoichiometry: CO  ===  Charge: 0  ===  Donors: C
Cu  0.0  0.0  0.0 
O  -1.0965999999999996  2.5334000000000003  -1.0276999999999994 
C  -0.6473999999999993  1.5348000000000006  -0.6307999999999998 
