35
Ligand ID: unq_CSD-PAQKAU-04-a  ===  Stoichiometry: C10H18N4O2  ===  Charge: -2  ===  Donors: N-N-N-N
Cu  0.0  0.0  0.0 
N  0.9921000000000006  0.6696  1.5280999999999993 
N  1.3925  0.9005999999999998  -1.0339000000000005 
N  -0.9694999999999991  -0.7744000000000001  -1.5792000000000006 
N  -1.7088999999999999  -0.33810000000000007  1.0425999999999993 
O  3.1148999999999996  2.3783  -0.6889000000000003 
O  3.0591  1.5930999999999997  1.9783 
C  2.1178999999999997  1.2692999999999999  1.2128999999999994 
C  2.2387000000000006  1.5751  -0.29380000000000006 
C  1.4145000000000003  1.1174  -2.4785000000000004 
C  0.7040000000000006  0.021299999999999875  -3.2436000000000007 
C  -0.7715999999999994  -0.13600000000000012  -2.8986000000000005 
C  -2.393  -0.9156000000000001  -1.2194000000000003 
C  -2.5007999999999995  -1.2996  0.24589999999999979 
C  -1.5305999999999997  -0.7612000000000001  2.4478 
C  -0.7289999999999992  0.2508999999999999  3.2432 
C  0.7592000000000008  0.28559999999999985  2.9174999999999995 
H  -2.8113999999999995  -0.058800000000000185  -1.3858000000000006 
H  0.9750000000000005  1.9771  -2.6605000000000003 
H  -1.1641999999999992  -0.6956000000000001  -3.5370000000000004 
H  0.7528000000000006  0.24029999999999996  -4.1717 
H  -0.8036999999999992  0.037699999999999845  4.246499999999999 
H  -2.0429999999999993  -2.2201  0.4382999999999999 
H  1.1770000000000005  -0.8114000000000001  -3.1085000000000003 
H  -2.8286  -1.5447000000000002  -1.7698000000000005 
H  -1.0960999999999999  -1.564  2.4722 
H  -3.4193  -1.3131000000000002  0.5343 
H  1.2158000000000007  -0.6763000000000001  3.0588999999999995 
H  -1.2475999999999994  0.7805999999999997  -2.8294000000000006 
H  -2.4598999999999998  -0.8790000000000001  2.8598 
H  -1.1236999999999995  1.0989999999999998  3.1014999999999997 
H  1.1045000000000007  0.8868  3.4215999999999998 
H  2.313900000000001  1.1473  -2.7263 
H  -2.1429  0.4139999999999999  1.0338999999999992 
H  -0.5729999999999995  -1.4965000000000002  -1.6578000000000004 
33
Ligand ID: unq_CSD-PANVEH-04-a  ===  Stoichiometry: C12H16O4  ===  Charge: 0  ===  Donors: O-O-O-O
Cu  0.0  0.0  0.0 
O  0.5436999999999994  -1.6321000000000003  -1.412700000000001 
O  1.0928999999999993  2.0544  -0.17239999999999966 
O  -0.4449000000000005  0.7639999999999998  -2.0016999999999996 
O  2.3221999999999996  -0.24040000000000017  -0.04610000000000092 
C  4.1316  -1.7526000000000002  -0.7223000000000006 
H  4.765299999999999  -1.2593000000000005  -0.25070000000000014 
C  1.1269  2.5284999999999997  -1.5496999999999996 
H  1.8503999999999996  2.1026  -2.0355000000000008 
H  1.2656999999999998  3.4895  -1.5711000000000013 
C  2.2455  -3.2391000000000005  -2.1316000000000006 
H  1.6190999999999995  -3.7325  -2.608500000000001 
C  0.005300000000000082  -0.025100000000000122  -3.1121 
H  0.9299  0.18059999999999965  -3.322000000000001 
H  -0.5372000000000003  0.15329999999999977  -3.8968000000000007 
C  2.3796  2.0576  0.4628999999999994 
H  2.2649  2.0061999999999998  1.4238 
H  2.8386000000000005  2.8869  0.25820000000000043 
C  2.8076999999999996  -1.3669000000000002  -0.7383000000000006 
C  3.561099999999999  -3.6231999999999998  -2.0923999999999996 
H  3.8198  -4.401000000000001  -2.5284000000000013 
C  1.867  -2.0773  -1.4322999999999997 
C  -0.13070000000000004  -1.4666000000000006  -2.693900000000001 
H  -1.0678  -1.7027999999999999  -2.6103000000000005 
H  0.2732000000000001  -2.0451000000000006  -3.3612 
C  -0.19310000000000027  2.1798  -2.1707 
H  -0.9001000000000001  2.6924  -1.7472000000000012 
H  -0.18210000000000015  2.4014999999999995  -3.1138000000000012 
C  4.5028  -2.8824000000000005  -1.4215999999999998 
H  5.3942000000000005  -3.1459  -1.4375999999999998 
C  3.2161  0.8940999999999999  -0.0051000000000005485 
H  3.5840000000000005  1.0709  -0.8841999999999999 
H  3.945999999999999  0.7302  0.6122999999999994 
38
Ligand ID: unq_CSD-PADQEQ-04-a  ===  Stoichiometry: C19H16NO  ===  Charge: -1  ===  Donors: C-C-C-N
Cu  0.0  0.0  0.0 
C  -1.2869000000000002  -0.6071  1.5511 
C  -0.32179999999999964  -1.7051000000000003  1.4177 
C  -0.12959999999999994  -2.4261000000000004  0.20110000000000028 
C  -1.0359999999999996  -2.2715  -0.9578999999999995 
N  -1.2837999999999994  -0.9905000000000002  -1.2026999999999992 
C  -2.1345  -0.6576  -2.181799999999999 
C  -2.7296999999999993  -1.6152000000000002  -2.9577999999999998 
C  -2.4299  -2.9498  -2.748499999999999 
C  -1.5877  -3.2843  -1.717999999999999 
C  0.8867000000000003  -3.4279  0.11550000000000082 
C  1.694  -3.6897  1.1754000000000016 
C  1.550300000000001  -2.9562000000000004  2.3552 
C  0.6011000000000006  -1.9954  2.4543 
C  -2.7294  -0.7412000000000001  1.2096 
C  -3.3482999999999996  -1.967  1.0101000000000013 
C  -4.6986  -2.0348  0.7152000000000012 
C  -5.469799999999999  -0.8895000000000002  0.6625000000000014 
C  -4.8688  0.3094999999999999  0.8755000000000006 
C  -3.5370999999999997  0.4040999999999997  1.1435000000000013 
O  -1.0888  0.15649999999999986  2.7395000000000014 
C  -1.8522999999999996  -0.2947000000000002  3.8741000000000003 
H  -2.3290999999999995  0.2589999999999999  -2.3396999999999997 
H  -3.3444999999999996  -1.3644000000000003  -3.6369999999999996 
H  -2.7997999999999994  -3.6219  -3.3089999999999993 
H  -1.3883999999999999  -4.1930000000000005  -1.5306999999999995 
H  0.9983000000000004  -3.9169  -0.6910999999999987 
H  2.3549999999999995  -4.3697  1.1142000000000003 
H  2.1222000000000003  -3.1328  3.0932000000000013 
H  0.5507  -1.4906000000000001  3.2585000000000015 
H  -2.8401999999999994  -2.7668000000000004  1.0762 
H  -5.100099999999999  -2.8788  0.5451000000000015 
H  -6.4017  -0.9400000000000002  0.4826000000000015 
H  -5.3906  1.1029999999999998  0.8351000000000006 
H  -3.1485999999999996  1.2591999999999999  1.2880000000000003 
H  -1.6677999999999997  0.2622  4.6219 
H  -2.7789  -0.2521  3.6697000000000006 
H  -1.6143999999999998  -1.1908  4.079700000000001 
42
Ligand ID: unq_CSD-PARKAW-04-a  ===  Stoichiometry: C11H24N4O2  ===  Charge: 0  ===  Donors: N-N-N-N
Cu  0.0  0.0  0.0 
N  -0.11379999999999996  -1.2109999999999999  -1.6116000000000001 
N  1.2692  1.1114000000000002  -1.1064000000000007 
N  0.07620000000000005  1.2406000000000001  1.5962999999999994 
N  -1.2995999999999999  -1.0774  1.0846999999999998 
O  0.5239000000000001  5.1762  -0.3639000000000001 
H  0.6425  6.0878  -0.22750000000000004 
O  2.152  5.2155000000000005  1.1128 
C  -0.22449999999999992  -2.6571  -1.3895000000000008 
C  -1.4042  -2.9973  -0.5004000000000008 
C  -1.2679  -2.5473  0.9383999999999997 
C  -1.1857  -0.6402999999999999  2.481399999999999 
C  -1.0377999999999998  0.8625000000000003  2.503 
C  0.1139  2.6876  1.3294999999999995 
C  1.2917  3.0779  0.42109999999999914 
C  1.1508000000000003  2.5821  -1.0108000000000006 
C  1.1288  0.6610999999999998  -2.492400000000001 
C  1.0128  -0.8445  -2.5058000000000007 
C  1.3851  4.600200000000001  0.43789999999999996 
H  -0.7118  -0.9542000000000002  -2.0402000000000005 
H  1.9466  0.9347999999999996  -0.8991000000000007 
H  0.7154000000000001  1.1014000000000004  2.050799999999999 
H  -1.9236  -0.8847999999999998  0.8352999999999993 
H  -0.30759999999999993  -3.0932  -2.1909 
H  0.6884  -2.9404  -0.9907000000000004 
H  -2.1964  -2.5654  -0.8762000000000008 
H  -1.4735  -3.9821  -0.5137 
H  -0.41079999999999994  -2.8987  1.3943999999999992 
H  -1.9708  -2.9265  1.5279999999999987 
H  -0.3554999999999999  -1.0514000000000001  2.856 
H  -1.8992999999999998  -0.9264000000000001  2.9551999999999996 
H  -1.6905999999999999  1.2681  2.1003999999999987 
H  -0.8937999999999999  1.1987  3.5123999999999995 
H  0.20410000000000006  3.0875999999999997  2.1003999999999987 
H  -0.8210999999999999  2.9487  0.8409999999999993 
H  2.0819  2.7543  0.8390999999999993 
H  0.2963  2.8515  -1.4296000000000006 
H  1.745  2.9903999999999997  -1.5250000000000004 
H  0.2712000000000001  1.0042000000000004  -2.8454000000000006 
H  1.7755999999999998  0.9625999999999997  -3.0477000000000007 
H  1.8049  -1.2458999999999998  -2.1203000000000003 
H  0.9516000000000001  -1.1625  -3.4140000000000006 
52
Ligand ID: unq_CSD-PABJAE-04-a  ===  Stoichiometry: C17H30N4  ===  Charge: 0  ===  Donors: N-N-N-N
Cu  0.0  0.0  0.0 
N  1.9943999999999997  -0.9430999999999994  -0.2431000000000001 
C  2.2872999999999992  -0.9116  -1.7208000000000006 
H  1.5023999999999997  -1.2906999999999993  -2.189800000000001 
H  2.3575999999999997  0.03710000000000235  -1.9913000000000007 
C  3.5087  -1.623099999999999  -2.230200000000001 
C  3.4927  -2.9185999999999996  -2.732100000000001 
H  2.6845  -3.4193999999999996  -2.7296000000000005 
C  4.657699999999999  -3.4823999999999984  -3.2391000000000005 
H  4.6459  -4.367099999999999  -3.5829000000000004 
C  5.8395  -2.750499999999999  -3.242800000000001 
H  6.6359  -3.1355999999999984  -3.589200000000001 
C  5.855299999999999  -1.454699999999999  -2.739700000000001 
H  6.6635  -0.9538999999999991  -2.7422000000000004 
C  4.6903  -0.891099999999998  -2.232800000000001 
H  4.701999999999999  -0.006199999999999761  -1.8889000000000014 
C  1.8215999999999992  -2.346899999999998  0.24249999999999972 
H  2.015199999999999  -2.3874999999999993  1.2132999999999985 
H  2.463399999999999  -2.938299999999998  -0.2240000000000002 
C  0.40439999999999987  -2.834699999999998  -0.011600000000001387 
H  0.22249999999999925  -2.8565999999999985  -0.9850000000000012 
H  0.28939999999999966  -3.7489999999999988  0.3498999999999999 
N  -0.5284000000000004  -1.9037999999999986  0.6578999999999997 
H  -0.3636000000000008  -1.9448999999999987  1.5724 
C  -1.9481000000000006  -2.230199999999998  0.4396999999999984 
H  -2.1077000000000004  -3.176499999999999  0.6799 
H  -2.1665000000000005  -2.1180999999999983  -0.5198 
C  -2.8598000000000003  -1.3413999999999984  1.2689999999999984 
H  -3.7757000000000005  -1.7163999999999984  1.2372999999999994 
H  -2.5573000000000006  -1.3772999999999982  2.210799999999999 
C  -2.9255000000000004  0.09970000000000212  0.847999999999999 
H  -3.1492000000000004  0.15020000000000167  -0.11530000000000129 
H  -3.6454000000000004  0.5543000000000013  1.3523999999999994 
N  -1.6470000000000002  0.7942999999999998  1.0893999999999995 
H  -1.4512000000000005  0.7467000000000006  1.9970999999999997 
C  -1.6432000000000007  2.208400000000001  0.6861999999999995 
H  -2.3082000000000003  2.7166999999999994  1.214599999999999 
H  -1.8738000000000006  2.2910000000000004  -0.27330000000000076 
C  -0.24680000000000035  2.7500999999999998  0.9376999999999995 
H  -0.19160000000000021  3.6813000000000002  0.6090999999999998 
H  -0.06920000000000037  2.7600000000000016  1.9123999999999999 
N  0.7840999999999996  1.9251000000000005  0.2568999999999999 
H  0.8985999999999992  2.2836999999999996  -0.5932000000000013 
C  2.081899999999999  2.0523000000000025  0.9553999999999991 
H  1.9711999999999996  1.7713999999999999  1.8984999999999985 
H  2.3594  3.0029000000000003  0.9515999999999991 
C  3.1719999999999997  1.2170000000000023  0.3169999999999984 
H  3.1637999999999993  1.3817000000000021  -0.6602000000000015 
H  4.0478  1.5236000000000018  0.6633999999999993 
C  3.0553999999999997  -0.272199999999998  0.5559999999999992 
H  3.9243999999999994  -0.6965000000000003  0.3473999999999986 
H  2.8716999999999997  -0.42469999999999786  1.5166999999999984 
