87

Ru  0.0  0.0  0.0 
O  2.3655954193116226  -3.4536008900149717  0.02201368176650762 
O  0.245041513288083  2.0695400297392372  1.4118889796249873e-15 
N  0.3441425907537789  -2.0824087700950207  8.101330357939026e-16 
N  2.061660667314772  3.570051735412863  -0.14626134267049262 
C  1.7757671563152249  -2.339148576970542  0.040463129470171506 
N  1.8108158959581384  0.01286874035578306  -2.277533166650148e-15 
C  2.5931081369385818  -1.1359823042949115  -0.04294341517399544 
C  3.975223616228985  -1.0292935288462888  -0.15502265990348366 
H  4.5103319542562215  -1.8139425200069368  -0.18436745917526753 
C  4.573384681145079  0.22315440265007178  -0.2244541319383804 
H  5.517688571201139  0.29386844492615277  -0.3010897467004812 
C  3.790498805751162  1.3708397104279535  -0.17991740081125535 
H  4.1990313928540015  2.22712426521429  -0.22784167972525055 
C  2.4090120485183144  1.2653855352310335  -0.06936801581155898 
C  1.6094897946674454  2.402859208647743  0.08464480145089952 
C  1.4390350080213585  4.746868830676967  -0.02102751064576261 
C  1.6402654545821767  5.598288801032621  -1.1008642026767883 
C  1.199698317941767  6.916922778956798  -1.0382561330983842 
H  1.3382494691997306  7.498520280465046  -1.777225459068316 
C  0.5589673797323871  7.381475683302544  0.10207420232431928 
H  0.25774404371295057  8.281037668024455  0.14513285395785633 
C  0.35648033383211186  6.5298114974236805  1.1828707468848003 
H  -0.08082440458100515  6.848318011592447  1.9631024664357908 
C  0.7973235097662144  5.2140808153667155  1.1215294351426754 
C  0.7672937844932533  4.325582845864343  2.338882762566637 
H  0.290123263729408  4.781541805987601  3.063223297672384 
H  1.6829138118374778  4.128380045874684  2.6224341709609553 
H  0.3068050937939131  3.486879556568464  2.1197301941074027 
C  2.2241656954504876  5.201774328825452  -2.421969573964105 
H  2.5036993769731857  4.262468299538958  -2.3876843841526987 
H  2.9992985247674744  5.766774303935453  -2.6199862779078398 
H  1.5489873646671326  5.313693806242041  -3.125552832871961 
C  -0.527104769437815  -3.198188709943762  -0.3253204315598917 
C  -0.4828489941911631  -3.809079977458966  -1.5708215016642044 
C  -1.4281605488734013  -4.7730990048057285  -1.9081507021459467 
H  -1.3970564274488997  -5.190051523132136  -2.7586364110744825 
C  -2.4169410326144076  -5.122599367472462  -0.9955254222699612 
H  -3.0619836243955003  -5.779976165077898  -1.2246249001356952 
C  -2.4603438885874622  -4.509724302560884  0.2517636849153012 
H  -3.1376686636737983  -4.750377533892915  0.874049777724465 
C  -1.5159637906375376  -3.5477043360806984  0.5873648390991841 
C  -1.6890538291786752  -2.8335498188572785  1.9170094999342557 
H  -2.4418875295422993  -3.231085903821624  2.403027062114916 
H  -1.8690763895608027  -1.885153783613496  1.7552729917262015 
H  -0.8703303487056382  -2.9269545932500023  2.445170309387932 
C  0.5696965183566369  -3.4038242010769597  -2.614984247467991 
H  1.1583621428026765  -2.718178015419936  -2.233631627587745 
H  0.12122864264532296  -3.0440134658463385  -3.4092657084550786 
H  1.1007454427119352  -4.187773574330146  -2.8658320302307962 
N  -1.9331373914113539  9.992007221626409e-16  -0.06686260858863124 
C  -2.8915834914955543  0.024538973421560306  0.8825723454851038 
C  -2.382923637086436  -0.09660018924547176  -1.3607094258893855 
C  -4.239862278443805  -0.1507406211289518  0.5912923660845801 
H  -4.867349107988661  -0.14156694902835898  1.2762080415424335 
C  -3.709792275571248  -0.2758829469746974  -1.7060090334572362 
H  -3.959943428332423  -0.35290343159750537  -2.5976959884592423 
C  -4.648435321938252  -0.33649532598386533  -0.7120013720090292 
H  -5.541786197109309  -0.49970768197255155  -0.9102100516467064 
C  0.6749796270666867  0.144747681500027  -3.1222354723526706 
C  -0.22892063998668835  0.24005075526767872  -4.16038261575349 
C  -1.3120147248631033  0.0028869163205234027  -2.3139924465851314 
C  -1.8204307787224427  1.3422996530556714  4.010053657520249 
C  -2.3155880759226006  0.11336247260930643  4.38076399935869 
C  -2.4993818539054953  0.3419238947238996  2.2583610019296887 
O  -2.7810250742382134  -0.5240336291505167  3.239876016224374 
N  -1.9478444218704238  1.4596848322601703  2.620006750670384 
O  -1.5176693236564431  0.16446583474972853  -3.644196757627017 
N  -0.0668626085886388  1.1102230246251565e-16  -1.933137391411361 
C  1.4949754825695394  0.48199238505665465  -5.716016424337829 
H  1.7980713672642132  0.5919107647012564  -6.5882983136933095 
C  0.13706361181400029  0.40779525604211003  -5.482124061685264 
H  -0.48927420238717667  0.4662143913716042  -6.167407322190783 
C  2.031609231469367  0.21954236124529747  -3.3654663962501363 
H  2.653610442388838  0.15361295348709414  -2.6773547651848144 
C  2.4226595191387252  0.3958093109696903  -4.682357923654144 
H  3.3293781574534913  0.45789336193137087  -4.881219009713769 
C  -1.2547373077319528  2.194246202556595  4.931484845223455 
H  -0.9226163163505585  3.0280888195736773  4.687567795532457 
C  -1.204061523719239  1.7435300777007803  6.244010841045906 
H  -0.8256021202054655  2.285746093127011  6.89897745279594 
C  -1.7084793276750156  0.5038572437420958  6.599102003703207 
H  -1.6579104510524514  0.23427008409663685  7.48755848101173 
C  -2.2823060959494352  -0.3454766662266887  5.680457137942266 
H  -2.625925643511998  -1.174953540554199  5.920581629589339 
O  0.0  0.0  1.88 
H  -0.6511917182125614  0.10287963460190092  2.323400729493708 
