66

Ru  0.0  0.0  0.0 
C  0.9438756801513322  6.122042616812729  2.057133219348047 
H  1.3242081920619821  6.57706456550614  2.799372066748928 
C  3.348432527151795  -5.403131033526214  -1.4921441210518258 
H  3.939629955086308  -5.414851189063752  -2.273671976702405 
H  2.508638951609332  -5.858367972141789  -1.7110224667087792 
H  3.784789519082069  -5.864125707481357  -0.7454933953583772 
O  0.26137252489279994  -1.8957201117117815  -5.939693181744587e-15 
O  0.06379429759175548  1.9207028069512648  4.82947015711943e-15 
C  1.038186000380845  2.6857545262079836  0.510869382913209 
C  3.060060986803675  -3.9793481881602526  -1.102555178756413 
N  2.074833177515445  -0.02498269523948371  1.0547118733938985e-15 
C  4.334927488897737  0.8561642581369864  0.5597905324429525 
H  4.567058041329927  -0.03717117653815838  0.889386827600067 
H  4.63764140035796  1.5304555677875324  1.2034503242104688 
H  4.771717168548471  1.0094426979420064  -0.30382484238634444 
C  2.8497015939112895  0.9564236420369798  0.39316098283755463 
C  0.6694146337940563  4.096322652917656  0.7667299095609857 
C  -0.49907450023441213  6.109220136241982  0.14765130769851512 
H  -1.080680664091677  6.570514482460417  -0.4454901731558766 
C  2.5277235704834755  -1.3010152033719138  -0.39680316297444174 
C  -0.23541963912610364  4.766911844131233  -0.058384473525726115 
H  -0.6708751892124938  4.300696897943411  -0.7624609380166546 
C  2.3047504151247136  2.24960412211298  0.7165679689858541 
H  2.9019138973004166  2.868328643095679  1.1202106732312271 
C  3.786362423511565  -1.6798420229930882  -0.8822610585574063 
H  4.466054949546522  -1.0255745040047888  -0.992979727485069 
C  1.7850439479600309  -3.602459296561592  -0.6723492466170283 
H  1.0968745143673146  -4.253378484428293  -0.6033154756376319 
C  0.07458711274077401  6.786041300880401  1.2050566769378608 
H  -0.12581670564357617  7.7032515219230735  1.3491877283869589 
C  1.5215700646259198  -2.2791472279505163  -0.34687356109026535 
C  1.255944071389912  4.793686960611415  1.8228359085915236 
H  1.8778554156826208  4.351309091324412  2.388667147217605 
C  4.045066576416728  -3.0000790537042104  -1.2008604214078396 
H  4.914989021475286  -3.2446895110124805  -1.493839403177478 
O  -1.9489148368004376  4.246603069191224e-15  -0.05108516319956369 
O  -0.05108516319956191  -7.771561172376096e-16  -1.9489148368004372 
O  -3.9746580164382124  0.43135831931974233  -0.7836919543944088 
C  -2.7323176779834175  0.09074731529413567  -0.9846421904846517 
C  -2.4035125823173518  -0.2191442875120655  -2.3961455144531953 
C  -3.371703449042826  -0.5658876541984837  -3.2342099828852895 
C  -4.361102355430104  0.6705490113371523  0.5717221652433504 
C  -4.280836406041405  -0.5981650032042627  -5.496806106642312 
C  -2.3882584534939695  -1.9627745108168733  -5.063050017042668 
C  -0.9599128352971231  -0.011022890958690718  -2.7597384663923843 
O  -0.7900538573688369  0.23880124014822338  -4.002150930565959 
C  -4.276810345796217  -1.0130448878868177  -6.75633624606921 
C  -3.300652583015994  -1.899746175396647  -7.19465296819188 
C  0.5833350125363971  0.4112050621582086  -4.4578165581667175 
C  -3.3011693873778127  -1.037162146231883  -4.608845352466508 
C  -2.417102014076242  -2.4202887399739756  -6.357061175855348 
H  -4.232248810466392  -0.49681655611844266  -2.8871773556837317 
H  -5.281610634084559  0.9391331063302178  0.5993898873285941 
H  -3.8117717118228316  1.3660311497357736  0.9424340873102235 
H  -4.246264089446214  -0.13447622752700006  1.0829156681926029 
H  -4.940675465454644  -0.012398301311426052  -5.205496843785399 
H  -1.73953933679762  -2.2850778518638015  -4.48048602572265 
H  -4.929317670830957  -0.7104190161042381  -7.347008670094443 
H  -3.2667127449584363  -2.133303403468597  -8.0944021880348 
H  0.5852465310402423  0.626851911283133  -5.393361780248215 
H  1.0736029462640948  -0.4023762975237724  -4.316338523347101 
H  0.9972826317512247  1.1238361452985317  -3.965983661860853 
H  -1.827061082642694  -3.079828445463724  -6.63899305790414 
O  0.0  0.0  1.88 
H  -0.6511917182125614  0.10287963460190092  2.323400729493708 
